geometry optimzed in LAMMPS
_audit_creation_date              2020-12-01 
_audit_creation_method            'lammps2cif' 
_symmetry_space_group_name_H-M    'P1' 
_symmetry_Int_Tables_number       1 
_symmetry_cell_setting            triclinic 
loop_ 
_symmetry_equiv_pos_as_xyz 
  x,y,z 
_cell_length_a                    25.44551684 
_cell_length_b                    25.26393674791695 
_cell_length_c                    39.205274280208364 
_cell_angle_alpha                 88.57186279970033 
_cell_angle_beta                  88.53403688849352 
_cell_angle_gamma                 90.59522732939269 
loop_ 
_atom_site_label 
_atom_site_type_symbol 
_atom_site_fract_x 
_atom_site_fract_y 
_atom_site_fract_z 
_atom_site_charge 
O1          O  0.14694341  0.62197397  0.68163311    -0.82500
C2          C  0.04304380  0.66552501  0.57439523     0.96800
O3          O  0.01817196  0.64890296  0.60189245    -0.71600
O4          O  0.06700175  0.58011407  0.64291978    -0.75200
Al5        Al  0.04274111  0.64855103  0.64919634     1.49000
C6          C  0.09312237  0.56547268  0.61767483     0.92100
O7          O  0.19224513  0.68105376  0.59092626    -0.81500
O8          O  0.11269768  0.77527024  0.65168046    -0.75000
Al9        Al  0.16066287  0.65469690  0.63592588     1.90100
O10         O  0.16040030  0.75876320  0.59314086    -0.74100
O11         O  0.01728045  0.75750861  0.62004222    -0.73900
O12         O  0.07306885  0.70637600  0.57352036    -0.79600
O13         O  0.00438638  0.70699256  0.66393003    -0.77800
O14         O  0.09872417  0.68250967  0.63305564    -1.13900
O15         O  0.06625006  0.64619170  0.69445472    -0.73100
C16         C  0.11004987  0.62856224  0.70369734     0.97600
C17         C  0.19250594  0.72838722  0.57931555     0.94000
Al18       Al  0.09134053  0.74381640  0.61182616     1.55600
O19         O  0.13693418  0.58963429  0.61073569    -0.77800
C20         C  0.98809124  0.74188764  0.64444077     0.98200
C21         C  0.15441253  0.76212177  0.66754175     0.93000
O22         O  0.18114255  0.71973171  0.66054854    -0.83100
O23         O  0.39529530  0.85338891  0.35027572    -0.82500
C24         C  0.32344755  0.97884667  0.45434355     0.96800
O25         O  0.36398545  0.99278977  0.43706934    -0.71600
O26         O  0.43458841  0.92904499  0.43176613    -0.75200
Al27       Al  0.39443741  0.96041151  0.39804493     1.49000
C28         C  0.46815991  0.89791295  0.42202917     0.92100
O29         O  0.35254200  0.82309630  0.44564306    -0.81500
O30         O  0.27081563  0.87702563  0.36391490    -0.75000
Al31       Al  0.37617880  0.83984271  0.39703173     1.90100
O32         O  0.27295200  0.85234726  0.43489181    -0.74100
O33         O  0.27778598  0.97936996  0.37744963    -0.73900
O34         O  0.28850482  0.94993847  0.44276246    -0.79600
O35         O  0.35926853  0.00343697  0.36714549    -0.77800
O36         O  0.35067002  0.90586638  0.39929866    -1.13900
O37         O  0.43066560  0.93343321  0.35654256    -0.73100
C38         C  0.41943998  0.89407964  0.33779360     0.97600
C39         C  0.30329316  0.82647589  0.45458559     0.94000
Al40       Al  0.28254823  0.91429533  0.40382511     1.55600
O41         O  0.45122985  0.85653253  0.40816508    -0.77800
C42         C  0.31130469  0.01237426  0.36532527     0.98200
C43         C  0.27286705  0.82760752  0.36739889     0.93000
O44         O  0.31181607  0.80692260  0.38203316    -0.83100
O45         O  0.66284745  0.86284067  0.65571975    -0.82500
C46         C  0.75149966  0.95069909  0.54087682     0.96800
O47         O  0.70656961  0.96670677  0.55047473    -0.71600
O48         O  0.62706712  0.92055114  0.56779119    -0.75200
Al49       Al  0.67370651  0.95669348  0.59439117     1.49000
C50         C  0.59106646  0.89758000  0.58347022     0.92100
O51         O  0.70182472  0.81450190  0.56641944    -0.81500
O52         O  0.78228482  0.86962440  0.64573424    -0.75000
Al53       Al  0.67956703  0.83868775  0.61209190     1.90100
O54         O  0.78422969  0.84244918  0.57507296    -0.74100
O55         O  0.78718438  0.97020551  0.62874597    -0.73900
O56         O  0.78683170  0.94326413  0.56207281    -0.79600
O57         O  0.71431209  0.00728795  0.61458825    -0.77800
O58         O  0.71160085  0.90149714  0.60327858    -1.13900
O59         O  0.63843825  0.94565225  0.64083440    -0.73100
C60         C  0.64524665  0.90825399  0.66361873     0.97600
C61         C  0.75160209  0.81434307  0.55834007     0.94000
Al62       Al  0.78032398  0.90577210  0.60329595     1.55600
O63         O  0.60515167  0.85796363  0.60102472    -0.77800
C64         C  0.75850266  0.01063407  0.62719074     0.98200
C65         C  0.77914186  0.82030205  0.64462368     0.93000
O66         O  0.74026919  0.80064905  0.62987870    -0.83100
O67         O  0.90430931  0.63001406  0.33791100    -0.82500
C68         C  0.01243403  0.64512185  0.44411707     0.96800
O69         O  0.03584126  0.63487429  0.41524100    -0.71600
O70         O  0.98371019  0.57920140  0.36890233    -0.75200
Al71       Al  0.01013674  0.64823443  0.36838708     1.49000
C72         C  0.96087755  0.55826034  0.39427566     0.92100
O73         O  0.86598443  0.66615683  0.43215506    -0.81500
O74         O  0.94574016  0.77268914  0.37612014    -0.75000
Al75       Al  0.89377293  0.65067091  0.38506156     1.90100
O76         O  0.89763912  0.74484974  0.43246112    -0.74100
O77         O  0.03904182  0.74647232  0.40657890    -0.73900
O78         O  0.98239252  0.68491416  0.44810881    -0.79600
O79         O  0.04913221  0.71037938  0.35827568    -0.77800
O80         O  0.95606592  0.67728005  0.38818244    -1.13900
O81         O  0.98403289  0.65903405  0.32401140    -0.73100
C82         C  0.93898676  0.64366960  0.31529138     0.97600
C83         C  0.86631355  0.71151378  0.44528980     0.94000
Al84       Al  0.96554048  0.73218450  0.41335303     1.55600
O85         O  0.91788303  0.57972784  0.40463466    -0.77800
C86         C  0.06637466  0.73946270  0.38034478     0.98200
C87         C  0.90343224  0.76381972  0.35979159     0.93000
O88         O  0.87435855  0.72130686  0.36512541    -0.83100
O89         O  0.89851010  0.33318874  0.64569132    -0.82500
C90         C  0.03328619  0.22347884  0.56356959     0.96800
O91         O  0.05176370  0.26263826  0.57922847    -0.71600
O92         O  0.00011846  0.34334998  0.56928066    -0.75200
Al93       Al  0.01458748  0.30811345  0.60999420     1.49000
C94         C  0.97359992  0.38339635  0.57284951     0.92100
O95         O  0.88975501  0.27397344  0.55742101    -0.81500
O96         O  0.90849589  0.20531930  0.65095181    -0.75000
Al97       Al  0.89570729  0.30491192  0.60227047     1.90100
O98         O  0.90208659  0.19265752  0.57839793    -0.74100
O99         O  0.01263140  0.19628383  0.64631703    -0.73900
O100        O  0.00241761  0.19125307  0.57844032    -0.79600
O101        O  0.03983114  0.27771222  0.64941338    -0.77800
O102        O  0.95637784  0.27110783  0.60899851    -1.13900
O103        O  0.98251040  0.35884383  0.64228760    -0.73100
C104        C  0.93712023  0.35819423  0.65745702     0.97600
C105        C  0.88556334  0.22355652  0.55443258     0.94000
Al106      Al  0.95631899  0.20141357  0.61386245     1.55600
O107        O  0.92666467  0.37486447  0.58372762    -0.77800
C108        C  0.04385930  0.23035040  0.65797102     0.98200
C109        C  0.86160359  0.20995881  0.64261109     0.93000
O110        O  0.85022183  0.24753309  0.62183317    -0.83100
O111        O  0.71055165  0.11065218  0.33129130    -0.82500
C112        C  0.78300313  0.94512807  0.40991675     0.96800
O113        O  0.76402474  0.93876608  0.38036466    -0.71600
O114        O  0.68159381  0.99164024  0.36665894    -0.75200
Al115      Al  0.74539039  0.99134973  0.34516942     1.49000
C116        C  0.65418372  0.02062553  0.38504747     0.92100
O117        O  0.75574640  0.11256878  0.42375544    -0.81500
O118        O  0.86070506  0.08188932  0.35312022    -0.75000
Al119      Al  0.73688558  0.10330579  0.37611155     1.90100
O120        O  0.83696296  0.08964365  0.41908623    -0.74100
O121        O  0.85910856  0.97707434  0.35862007    -0.73900
O122        O  0.80842176  0.98671776  0.41753738    -0.79600
O123        O  0.80589124  0.98374422  0.31728701    -0.77800
O124        O  0.77131666  0.04352094  0.36923499    -1.13900
O125        O  0.72246408  0.03417607  0.30843112    -0.73100
C126        C  0.70918476  0.08172937  0.30572245     0.97600
C127        C  0.80178718  0.11403339  0.43494643     0.94000
Al128      Al  0.83537526  0.03512669  0.38557281     1.55600
O129        O  0.67123830  0.06630902  0.39338062    -0.77800
C130        C  0.84448238  0.96211564  0.33009559     0.98200
C131        C  0.84294544  0.12702974  0.34511554     0.93000
O132        O  0.79872263  0.14376542  0.35729739    -0.83100
O133        O  0.36263050  0.10557572  0.67650023    -0.82500
C134        C  0.29667063  0.95879015  0.59675356     0.96800
O135        O  0.33755246  0.96309369  0.61484032    -0.71600
O136        O  0.40393227  0.02589522  0.65022662    -0.75200
Al137      Al  0.33794971  0.99443284  0.65887049     1.49000
C138        C  0.41618505  0.03614962  0.62012021     0.92100
O139        O  0.29578432  0.12180417  0.58863134    -0.81500
O140        O  0.20652251  0.08572376  0.65684878    -0.75000
Al141      Al  0.32762449  0.10655884  0.63234649     1.90100
O142        O  0.22686363  0.07033807  0.58979589    -0.74100
O143        O  0.21663537  0.98763602  0.67513698    -0.73900
O144        O  0.25090710  0.96836096  0.60874894    -0.79600
O145        O  0.28922236  0.94544757  0.67393431    -0.77800
O146        O  0.29724179  0.04451329  0.64168070    -1.13900
O147        O  0.33744376  0.02871934  0.70175982    -0.73100
C148        C  0.35582163  0.07595905  0.70337698     0.97600
C149        C  0.25333363  0.10784694  0.57518986     0.94000
Al150      Al  0.23083869  0.02933706  0.63323683     1.55600
O151        O  0.38810728  0.07138353  0.60545738    -0.77800
C152        C  0.24309552  0.94806452  0.68411886     0.98200
C153        C  0.22489670  0.12943197  0.66567404     0.93000
O154        O  0.27149303  0.14455197  0.65665941    -0.83100
O155        O  0.17172945  0.32619512  0.34917443    -0.82500
C156        C  0.01732486  0.21977426  0.42404155     0.96800
O157        O  0.00410338  0.24962805  0.39903590    -0.71600
O158        O  0.04782026  0.33724562  0.40672371    -0.75200
Al159      Al  0.05191355  0.29438803  0.37063483     1.49000
C160        C  0.08073301  0.37025954  0.41565693     0.92100
O161        O  0.16911658  0.26204120  0.44107419    -0.81500
O162        O  0.15480349  0.18561092  0.35209401    -0.75000
Al163      Al  0.16646132  0.29435569  0.39418342     1.90100
O164        O  0.15822219  0.18124684  0.42321876    -0.74100
O165        O  0.04993224  0.17874111  0.35528741    -0.73900
O166        O  0.05738919  0.19133585  0.42239797    -0.79600
O167        O  0.04901649  0.25601317  0.33070968    -0.77800
O168        O  0.10795331  0.26019779  0.38469377    -1.13900
O169        O  0.08901990  0.34598226  0.34182093    -0.73100
C170        C  0.13648547  0.34775330  0.33150707     0.97600
C171        C  0.17189760  0.21188914  0.44679811     0.94000
Al172      Al  0.10555945  0.18962742  0.38754146     1.55600
O173        O  0.12987387  0.35962997  0.41224647    -0.77800
C174        C  0.03190336  0.20989033  0.33290555     0.98200
C175        C  0.20178932  0.19938911  0.35637179     0.93000
O176        O  0.21237652  0.23814756  0.37575043    -0.83100
O177        O  0.88664071  0.66242767  0.15276041    -0.82500
C178        C  0.84970565  0.55547516  0.04411527     0.96800
O179        O  0.86281237  0.52873262  0.07090840    -0.71600
O180        O  0.93282067  0.57516474  0.10408976    -0.75200
Al181      Al  0.86710970  0.55434987  0.11711512     1.49000
C182        C  0.95613162  0.61388373  0.09051097     0.92100
O183        O  0.83904075  0.70566608  0.06134140    -0.81500
O184        O  0.74208465  0.62172875  0.12390093    -0.75000
Al185      Al  0.86131850  0.67571348  0.10736513     1.90100
O186        O  0.76148736  0.67224487  0.06646813    -0.74100
O187        O  0.76144645  0.52833407  0.09108065    -0.73900
O188        O  0.81201202  0.58806646  0.04415322    -0.79600
O189        O  0.80651677  0.51994761  0.13607379    -0.77800
O190        O  0.83550368  0.61178818  0.10309857    -1.13900
O191        O  0.87632634  0.57691161  0.16185666    -0.73100
C192        C  0.88664617  0.62220220  0.17270257     0.97600
C193        C  0.79104962  0.70637196  0.05262834     0.94000
Al194      Al  0.77466326  0.60330626  0.08330180     1.55600
O195        O  0.93250886  0.65839166  0.08690606    -0.77800
C196        C  0.77401288  0.50113631  0.11659873     0.98200
C197        C  0.75230582  0.66552599  0.13820527     0.93000
O198        O  0.79387699  0.69395091  0.13027649    -0.83100
O199        O  0.64349408  0.89174289  0.83187723    -0.82500
C200        C  0.51838352  0.84665018  0.93707928     0.96800
O201        O  0.49706201  0.85703600  0.90829398    -0.71600
O202        O  0.54344369  0.92928434  0.87374314    -0.75200
Al203      Al  0.53251938  0.86167904  0.86306825     1.49000
C204        C  0.57592602  0.95703149  0.88840397     0.92100
O205        O  0.67311134  0.85458208  0.92639475    -0.81500
O206        O  0.61562504  0.74214632  0.86836307    -0.75000
Al207      Al  0.65049362  0.86956657  0.87897476     1.90100
O208        O  0.64989259  0.77237314  0.92788508    -0.74100
O209        O  0.51304853  0.75405717  0.89367107    -0.73900
O210        O  0.55469353  0.81272457  0.94043802    -0.79600
O211        O  0.51032264  0.79644005  0.84607630    -0.77800
O212        O  0.58964225  0.83653806  0.88188905    -1.13900
O213        O  0.56252039  0.87305228  0.81851288    -0.73100
C214        C  0.60824468  0.88865237  0.80978827     0.97600
C215        C  0.67731592  0.80863119  0.93970334     0.94000
Al216      Al  0.58384170  0.77555653  0.90518378     1.55600
O217        O  0.62132112  0.93865226  0.89544736    -0.77800
C218        C  0.48908797  0.76495937  0.86695642     0.98200
C219        C  0.66065160  0.75663012  0.85584375     0.93000
O220        O  0.68137508  0.80276721  0.86143432    -0.83100
O221        O  0.66915258  0.16434628  0.14963215    -0.82500
C222        C  0.51945559  0.19421929  0.06586611     0.96800
O223        O  0.52722124  0.15701024  0.08791924    -0.71600
O224        O  0.59563971  0.10770670  0.13132624    -0.75200
Al225      Al  0.55677071  0.16883403  0.13167675     1.49000
C226        C  0.60544550  0.08883843  0.10342826     0.92100
O227        O  0.67273415  0.21121850  0.05366108    -0.81500
O228        O  0.63263363  0.30926193  0.12119267    -0.75000
Al229      Al  0.66478878  0.18790331  0.10123339     1.90100
O230        O  0.62509446  0.28211609  0.05522766    -0.74100
O231        O  0.53322625  0.28945635  0.13455184    -0.73900
O232        O  0.52836187  0.24324480  0.07110458    -0.79600
O233        O  0.50086905  0.21102008  0.14092991    -0.77800
O234        O  0.60173155  0.21269629  0.11008291    -1.13900
O235        O  0.59026352  0.18212207  0.17371396    -0.73100
C236        C  0.63879988  0.16923836  0.17629974     0.97600
C237        C  0.66000849  0.25518287  0.04024732     0.94000
Al238      Al  0.58122061  0.27567172  0.09670185     1.55600
O239        O  0.63448060  0.11772190  0.08333915    -0.77800
C240        C  0.49605396  0.25907857  0.14393705     0.98200
C241        C  0.68062205  0.29795181  0.12350849     0.93000
O242        O  0.69874253  0.25288338  0.11525568    -0.83100
O243        O  0.87185820  0.38947650  0.81642191    -0.82500
C244        C  0.83833174  0.51898319  0.91174140     0.96800
O245        O  0.86057832  0.53263482  0.88298564    -0.71600
O246        O  0.91825144  0.46753016  0.84440360    -0.75200
Al247      Al  0.85345732  0.50017412  0.83882224     1.49000
C248        C  0.93278402  0.45067091  0.87246726     0.92100
O249        O  0.80917491  0.35911368  0.90725100    -0.81500
O250        O  0.72089180  0.43341037  0.84448703    -0.75000
Al251      Al  0.83877365  0.38500002  0.86186261     1.90100
O252        O  0.73919621  0.40521437  0.90772324    -0.74100
O253        O  0.74142994  0.53420623  0.86242969    -0.73900
O254        O  0.79402011  0.49485158  0.91453994    -0.79600
O255        O  0.80198204  0.54796091  0.82412002    -0.77800
O256        O  0.81483439  0.44991298  0.85957237    -1.13900
O257        O  0.84932951  0.46775077  0.79568567    -0.73100
C258        C  0.86871080  0.42216759  0.79131586     0.97600
C259        C  0.76343076  0.36679970  0.91969140     0.94000
Al260      Al  0.75543558  0.46552092  0.87982701     1.55600
O261        O  0.90597256  0.41109879  0.88530007    -0.77800
C262        C  0.76184562  0.56299895  0.83945676     0.98200
C263        C  0.73096666  0.38753680  0.83292359     0.93000
O264        O  0.77383395  0.36225556  0.83960992    -0.83100
O265        O  0.18589789  0.40115942  0.17101989    -0.82500
C266        C  0.30518882  0.54646452  0.09637873     0.96800
O267        O  0.27936158  0.56185613  0.12287751    -0.71600
O268        O  0.18574980  0.53253722  0.12232961    -0.75200
Al269      Al  0.23335968  0.51779933  0.15437494     1.49000
C270        C  0.14915166  0.50596914  0.11137017     0.92100
O271        O  0.24040904  0.40406021  0.07821565    -0.81500
O272        O  0.32231609  0.40319774  0.16575878    -0.75000
Al273      Al  0.21309617  0.40729284  0.12578772     1.90100
O274        O  0.32173608  0.39956544  0.09484521    -0.74100
O275        O  0.34879044  0.50657995  0.16152711    -0.73900
O276        O  0.32641822  0.50165824  0.09597776    -0.79600
O277        O  0.27779326  0.51007081  0.19140263    -0.77800
O278        O  0.25585945  0.45982094  0.13581857    -1.13900
O279        O  0.18380183  0.48368446  0.18658658    -0.73100
C280        C  0.17695209  0.43481323  0.19355903     0.97600
C281        C  0.28832164  0.39180072  0.07190001     0.94000
Al282      Al  0.32478025  0.45264863  0.13033823     1.55600
O283        O  0.15324720  0.45522954  0.11082672    -0.77800
C284        C  0.32360828  0.52547594  0.18637246     0.98200
C285        C  0.30474201  0.35775865  0.15956162     0.93000
O286        O  0.26382793  0.35245137  0.14124286    -0.83100
O287        O  0.37952922  0.20189031  0.84240723    -0.82500
C288        C  0.51875222  0.26711668  0.93466052     0.96800
O289        O  0.53907546  0.24847904  0.90776138    -0.71600
O290        O  0.47983770  0.16914606  0.91307614    -0.75200
Al291      Al  0.49537005  0.21331006  0.87592634     1.49000
C292        C  0.44525878  0.13495744  0.91080498     0.92100
O293        O  0.36451355  0.24703253  0.93518144    -0.81500
O294        O  0.41249798  0.33739952  0.85337102    -0.75000
Al295      Al  0.37631593  0.22403224  0.88785704     1.90100
O296        O  0.38926869  0.32911504  0.92271437    -0.74100
O297        O  0.51508533  0.32963344  0.86494986    -0.73900
O298        O  0.48766434  0.30555941  0.93216074    -0.79600
O299        O  0.51831530  0.25513167  0.83827058    -0.77800
O300        O  0.44052836  0.25258818  0.88498543    -1.13900
O301        O  0.46014068  0.17159321  0.84204266    -0.73100
C302        C  0.41536733  0.17518175  0.82857036     0.97600
C303        C  0.36537545  0.29611402  0.94278540     0.94000
Al304      Al  0.45047887  0.32087739  0.89233382     1.55600
O305        O  0.39926174  0.14998068  0.90261404    -0.77800
C306        C  0.53621897  0.30061723  0.84266250     0.98200
C307        C  0.36392409  0.32671856  0.85181837     0.93000
O308        O  0.34354998  0.28816179  0.86957623    -0.83100
O309        O  0.40825990  0.84593894  0.17932917    -0.82500
C310        C  0.52101048  0.80030083  0.06547736     0.96800
O311        O  0.54815674  0.81577931  0.09012205    -0.71600
O312        O  0.49000450  0.89116331  0.09862254    -0.75200
Al313      Al  0.51365210  0.84289522  0.13019516     1.49000
C314        C  0.45537530  0.92301762  0.10550571     0.92100
O315        O  0.36949919  0.81132804  0.08702902    -0.81500
O316        O  0.44011324  0.71378764  0.15445031    -0.75000
Al317      Al  0.39352731  0.82918674  0.13366858     1.90100
O318        O  0.39693893  0.73000340  0.09230001    -0.74100
O319        O  0.53544273  0.72749246  0.12908014    -0.73900
O320        O  0.48996009  0.76147869  0.06994918    -0.79600
O321        O  0.54470419  0.79608710  0.16097465    -0.77800
O322        O  0.45728057  0.80347658  0.12600826    -1.13900
O323        O  0.48842866  0.87714382  0.17183743    -0.73100
C324        C  0.44805478  0.86866287  0.19106480     0.97600
C325        C  0.36935444  0.76357312  0.07656010     0.94000
Al326      Al  0.46521621  0.73765956  0.11263760     1.55600
O327        O  0.41207843  0.90550760  0.11914175    -0.77800
C328        C  0.56032683  0.75211210  0.15137547     0.98200
C329        C  0.39406822  0.72212680  0.16554065     0.93000
O330        O  0.36735630  0.76109230  0.15379564    -0.83100
O331        O  0.16316274  0.64797900  0.86075911    -0.82500
C332        C  0.26527257  0.53856198  0.96005818     0.96800
O333        O  0.21906330  0.52426036  0.95256316    -0.71600
O334        O  0.13435458  0.56601645  0.94313580    -0.75200
Al335      Al  0.18281247  0.54124663  0.91143591     1.49000
C336        C  0.09700472  0.58874068  0.93045820     0.92100
O337        O  0.20529176  0.67697749  0.95223365    -0.81500
O338        O  0.27988263  0.64791042  0.86289230    -0.75000
Al339      Al  0.18133667  0.66252396  0.90565597     1.90100
O340        O  0.28814861  0.65781900  0.93617242    -0.74100
O341        O  0.29077907  0.54972773  0.86788030    -0.73900
O342        O  0.29743718  0.55555778  0.93741181    -0.79600
O343        O  0.22488616  0.49981698  0.88400585    -0.77800
O344        O  0.21652378  0.60118822  0.90640713    -1.13900
O345        O  0.14542505  0.56064718  0.86804662    -0.73100
C346        C  0.14645690  0.60409741  0.84941292     0.97600
C347        C  0.25543247  0.67806745  0.95778848     0.94000
Al348      Al  0.28461194  0.60297431  0.90124878     1.55600
O349        O  0.10844238  0.63413670  0.91790459    -0.77800
C350        C  0.26509092  0.50740150  0.86567105     0.98200
C351        C  0.27707853  0.69565633  0.86920712     0.93000
O352        O  0.23970586  0.70956716  0.88876409    -0.83100
C353        C  0.32988652  0.68294936  0.99802795    -0.21000
C354        C  0.28015758  0.70196863  0.98927890    -0.07600
C355        C  0.25979235  0.74382481  0.00917200     0.13300
C356        C  0.28939199  0.76460091  0.03669756    -0.21100
C357        C  0.33909540  0.74428912  0.04563683    -0.07600
C358        C  0.35896793  0.70247359  0.02522037     0.13300
C359        C  0.41211133  0.67799787  0.03060845    -0.24400
H360        H  0.34674126  0.65135859  0.98327381     0.14500
H361        H  0.27306042  0.79620803  0.05167349     0.14600
C362        C  0.20733469  0.76716955  0.00120752    -0.24400
H363        H  0.42190428  0.64808704  0.01121707     0.04800
H364        H  0.41303931  0.65695789  0.05572738     0.08000
H365        H  0.44307377  0.70896755  0.02824904     0.08000
H366        H  0.17619112  0.73621060  0.00437114     0.08000
H367        H  0.20798908  0.78303395  0.97452710     0.08000
H368        H  0.19729792  0.79998028  0.01845518     0.04800
C369        C  0.35620709  0.41312864  0.82217053    -0.21000
C370        C  0.33087143  0.36612385  0.83408853    -0.07600
C371        C  0.27621043  0.36715670  0.84036292     0.13300
C372        C  0.25286571  0.41608420  0.84591821    -0.21100
C373        C  0.28327965  0.46316718  0.84449705    -0.07600
C374        C  0.33349293  0.46235683  0.82829955     0.13300
C375        C  0.36515661  0.51200435  0.82006447    -0.24400
H376        H  0.39702572  0.41207619  0.81361382     0.14500
H377        H  0.21211300  0.41658010  0.85468867     0.14600
C378        C  0.24271558  0.31775236  0.84377950    -0.24400
H379        H  0.40131874  0.50339770  0.80481497     0.04800
H380        H  0.37775011  0.53073124  0.84385002     0.08000
H381        H  0.34133670  0.54014006  0.80488376     0.08000
H382        H  0.22802788  0.31226532  0.87056294     0.08000
H383        H  0.26447053  0.28204679  0.83592368     0.08000
H384        H  0.20861686  0.32152386  0.82679404     0.04800
C385        C  0.37637734  0.35001639  0.99496811    -0.21000
C386        C  0.34345319  0.31707640  0.97631872    -0.07600
C387        C  0.29099611  0.30967238  0.98884839     0.13300
C388        C  0.27334287  0.33503281  0.01926740    -0.21100
C389        C  0.30706474  0.36710466  0.03845305    -0.07600
C390        C  0.35990571  0.37360285  0.02574131     0.13300
C391        C  0.40006007  0.40600591  0.04401196    -0.24400
H392        H  0.41633494  0.35684603  0.98549375     0.14500
H393        H  0.23309628  0.32907655  0.02833558     0.14600
C394        C  0.25314326  0.27651765  0.96948082    -0.24400
H395        H  0.43770796  0.41016214  0.02916890     0.04800
H396        H  0.40918920  0.38647384  0.06879392     0.08000
H397        H  0.38497068  0.44637090  0.04821735     0.08000
H398        H  0.26772634  0.23535000  0.96810020     0.08000
H399        H  0.24943524  0.29327598  0.94320100     0.08000
H400        H  0.21347131  0.27527976  0.98198043     0.04800
C401        C  0.24327420  0.57310947  0.01678867    -0.21000
C402        C  0.27949732  0.54633569  0.99587539    -0.07600
C403        C  0.33177743  0.54102929  0.00681872     0.13300
C404        C  0.34439419  0.55725815  0.03959404    -0.21100
C405        C  0.30518859  0.57430995  0.06275013    -0.07600
C406        C  0.25660612  0.58947271  0.04944487     0.13300
C407        C  0.21901890  0.62386440  0.06872532    -0.24400
H408        H  0.20514884  0.58355390  0.00702351     0.14500
H409        H  0.38311131  0.54857847  0.04909015     0.14600
C410        C  0.37378629  0.51578913  0.98496833    -0.24400
H411        H  0.21229366  0.66069217  0.05353043     0.04800
H412        H  0.23446611  0.63566974  0.09363555     0.08000
H413        H  0.18083770  0.60308312  0.07265572    -0.06400
H414        H  0.38327427  0.54101587  0.96205679     0.08000
H415        H  0.36017143  0.47611174  0.97710699     0.08000
H416        H  0.41092742  0.51063650  0.99888341     0.04800
C417        C  0.40778022  0.64230500  0.20120018    -0.21000
C418        C  0.37194286  0.68031843  0.18888786    -0.07600
C419        C  0.31770734  0.66870857  0.19160315     0.13300
C420        C  0.30217619  0.61670838  0.20022645    -0.21100
C421        C  0.33963631  0.57593981  0.20114829    -0.07600
C422        C  0.39260729  0.58918279  0.20525675     0.13300
C423        C  0.43308850  0.54736350  0.21194312    -0.24400
H424        H  0.44925628  0.65222902  0.20227999     0.14500
H425        H  0.26068689  0.60687167  0.20001500     0.14600
C426        C  0.27641324  0.70826690  0.18186191    -0.24400
H427        H  0.47266033  0.56511603  0.21539210     0.04800
H428        H  0.43603501  0.52003505  0.19029815     0.08000
H429        H  0.42183318  0.52442438  0.23557504     0.08000
H430        H  0.27955679  0.71791331  0.15410294     0.08000
H431        H  0.28132603  0.74479443  0.19666734     0.08000
H432        H  0.23605153  0.69246422  0.18721102     0.04800
C433        C  0.99477363  0.47333674  0.92168571    -0.21000
C434        C  0.97605719  0.48395163  0.88872370    -0.07600
C435        C  0.99705991  0.53102915  0.87144345     0.13300
C436        C  0.02831411  0.56749083  0.88869233    -0.21100
C437        C  0.04923692  0.55599164  0.92040609    -0.07600
C438        C  0.03359643  0.50654600  0.93644655     0.13300
C439        C  0.06016273  0.48673866  0.96799777    -0.24400
H440        H  0.98147005  0.43750653  0.93510839     0.14500
H441        H  0.04138840  0.60334918  0.87544192     0.14600
C442        C  0.99124454  0.54308192  0.83368615    -0.24400
H443        H  0.03904729  0.45204419  0.97993883     0.04800
H444        H  0.06252894  0.51880690  0.98666760     0.08000
H445        H  0.10063579  0.47402323  0.96129685     0.08000
H446        H  0.95151300  0.55792407  0.82842771     0.08000
H447        H  0.00050260  0.50754310  0.81864081     0.08000
H448        H  0.01884865  0.57468060  0.82410636     0.04800
C449        C  0.68135919  0.30643404  0.82202078    -0.21000
C450        C  0.68713259  0.36093438  0.81599745    -0.07600
C451        C  0.64250427  0.39047454  0.80652457     0.13300
C452        C  0.59233893  0.36873169  0.81302717    -0.21100
C453        C  0.58643066  0.31676087  0.82573736    -0.07600
C454        C  0.63128071  0.28371507  0.82724177     0.13300
C455        C  0.62789609  0.22611521  0.83815979    -0.24400
H456        H  0.71567451  0.28306175  0.82772383     0.14500
H457        H  0.55797949  0.39324159  0.80987786     0.14600
C458        C  0.64686675  0.44617048  0.79200056    -0.24400
H459        H  0.66688339  0.20679670  0.83683129     0.04800
H460        H  0.60151892  0.20432653  0.82115221     0.08000
H461        H  0.61349156  0.22237356  0.86499470     0.08000
H462        H  0.68834590  0.45811543  0.78630234     0.08000
H463        H  0.62911665  0.47424344  0.81023198     0.08000
H464        H  0.62560710  0.44878967  0.76764257     0.04800
C465        C  0.53716726  0.03732082  0.07063274    -0.21000
C466        C  0.57320876  0.03967295  0.09742459    -0.07600
C467        C  0.56032376  0.00880279  0.12735962     0.13300
C468        C  0.50990457  0.98661854  0.13233039    -0.21100
C469        C  0.47668468  0.97829912  0.10496492    -0.07600
C470        C  0.49120887  0.00421212  0.07350168     0.13300
C471        C  0.45745853  0.99781146  0.04307930    -0.24400
H472        H  0.54410378  0.06186508  0.04791168     0.14500
H473        H  0.50049832  0.96780753  0.15676556     0.14600
C474        C  0.59885364  0.00078937  0.15566906    -0.24400
H475        H  0.44209364  0.03710998  0.03544788     0.04800
H476        H  0.42312835  0.97127299  0.04875408     0.08000
H477        H  0.48091594  0.98075561  0.02186016     0.08000
H478        H  0.58388005  0.01952583  0.17927496     0.08000
H479        H  0.63834140  0.01753703  0.14881751     0.08000
H480        H  0.60369527  0.95770035  0.16085948     0.04800
C481        C  0.55172260  0.17493907  0.00967496    -0.21000
C482        C  0.50724287  0.18316627  0.03093766    -0.07600
C483        C  0.46444514  0.21046731  0.01787589     0.13300
C484        C  0.47115601  0.23856058  0.98723774    -0.21100
C485        C  0.51777137  0.23630471  0.96733650    -0.07600
C486        C  0.55694723  0.20029293  0.97735015     0.13300
C487        C  0.60417347  0.18927725  0.95483051    -0.24400
H488        H  0.58461412  0.15313792  0.01975001     0.14500
H489        H  0.43939684  0.26291098  0.97919212     0.14600
C490        C  0.41375052  0.21581544  0.03810593    -0.24400
H491        H  0.63238989  0.16295197  0.96792930     0.04800
H492        H  0.62492486  0.22666827  0.94725896     0.08000
H493        H  0.59142486  0.16919622  0.93153206     0.08000
H494        H  0.40821514  0.25770920  0.04523195     0.08000
H495        H  0.41335084  0.19052706  0.06166819     0.08000
H496        H  0.38031477  0.20319233  0.02244644     0.04800
C497        C  0.40074751  0.25572340  0.13749231    -0.21000
C498        C  0.44374742  0.27725121  0.15447552    -0.07600
C499        C  0.43475846  0.31089308  0.18182521     0.13300
C500        C  0.38315597  0.32708734  0.18886263    -0.21100
C501        C  0.34175102  0.31445489  0.16685813    -0.07600
C502        C  0.34970208  0.27413660  0.14310378     0.13300
C503        C  0.30605187  0.25302683  0.12180819    -0.24400
H504        H  0.40770702  0.22673542  0.11803206     0.14500
H505        H  0.37665475  0.35600850  0.20847272     0.14600
C506        C  0.47932883  0.33033681  0.20289999    -0.24400
H507        H  0.31886044  0.21816302  0.10714363     0.04800
H508        H  0.29348334  0.28350909  0.10299827     0.08000
H509        H  0.27221773  0.24042178  0.13864027     0.08000
H510        H  0.50777811  0.35360636  0.18648019     0.08000
H511        H  0.49974619  0.29605901  0.21463466     0.08000
H512        H  0.46515018  0.35610205  0.22367591     0.04800
C513        C  0.65791541  0.30881900  0.98486436    -0.21000
C514        C  0.68704786  0.27752640  0.00750304    -0.07600
C515        C  0.74194621  0.27308358  0.99981747     0.13300
C516        C  0.76576684  0.30112682  0.97112438    -0.21100
C517        C  0.73658127  0.33345191  0.94878883    -0.07600
C518        C  0.68091687  0.33505851  0.95559085     0.13300
C519        C  0.64411001  0.36336436  0.93182188    -0.24400
H520        H  0.61603814  0.31237972  0.98996204     0.14500
H521        H  0.80781855  0.29854523  0.96656713     0.14600
C522        C  0.77629832  0.24018769  0.02250121    -0.24400
H523        H  0.60219578  0.35605575  0.93927238     0.04800
H524        H  0.64995804  0.34904642  0.90544158     0.08000
H525        H  0.65082451  0.40677435  0.93238927     0.08000
H526        H  0.76342544  0.19810174  0.02220792     0.08000
H527        H  0.77366593  0.25436069  0.04901258     0.08000
H528        H  0.81820035  0.24232361  0.01388352     0.04800
C529        C  0.53855272  0.02298326  0.92905226    -0.21000
C530        C  0.55390003  0.01038849  0.89549490    -0.07600
C531        C  0.52535980  0.03441309  0.86856446     0.13300
C532        C  0.48022749  0.06430254  0.87557250    -0.21100
C533        C  0.46682500  0.08014307  0.90863830    -0.07600
C534        C  0.49707974  0.05905168  0.93557559     0.13300
C535        C  0.48380518  0.07379896  0.97145258    -0.24400
H536        H  0.55732742  0.00306134  0.95019395     0.14500
H537        H  0.45803337  0.07905009  0.85433210     0.14600
C538        C  0.54055412  0.02678990  0.83153543    -0.24400
H539        H  0.44345992  0.05935760  0.97814213     0.04800
H540        H  0.48458471  0.11725026  0.97366936     0.08000
H541        H  0.51214774  0.05681336  0.98960232     0.08000
H542        H  0.50869232  0.00520558  0.81870302     0.08000
H543        H  0.57765816  0.00450940  0.82840346     0.08000
H544        H  0.54672649  0.06603619  0.81863205     0.04800
C545        C  0.36080046  0.70776294  0.83669849    -0.21000
C546        C  0.32477242  0.72824062  0.86093490    -0.07600
C547        C  0.34262284  0.76708395  0.88329596     0.13300
C548        C  0.39677870  0.77731863  0.88474439    -0.21100
C549        C  0.43311967  0.75149004  0.86362557    -0.07600
C550        C  0.41483996  0.71896162  0.83786112     0.13300
C551        C  0.45248948  0.69406754  0.81289195    -0.24400
H552        H  0.34724174  0.67913148  0.81864873     0.14500
H553        H  0.41099995  0.80533034  0.90272717     0.14600
C554        C  0.30550242  0.79699090  0.90613195    -0.24400
H555        H  0.43168135  0.66871964  0.79470793     0.04800
H556        H  0.48084193  0.66910492  0.82690705     0.08000
H557        H  0.47438749  0.72544536  0.79795844     0.08000
H558        H  0.28761750  0.77036388  0.92609118     0.08000
H559        H  0.27421237  0.81520158  0.89064558     0.08000
H560        H  0.32596338  0.82933182  0.91927202     0.04800
C561        C  0.54606112  0.88993760  0.98733333    -0.21000
C562        C  0.50293320  0.87330140  0.96826574    -0.07600
C563        C  0.45903834  0.85208172  0.98582227     0.13300
C564        C  0.46610408  0.82967384  0.01805157    -0.21100
C565        C  0.51505358  0.83281353  0.03401436    -0.07600
C566        C  0.55322234  0.86892492  0.02038485     0.13300
C567        C  0.60175518  0.88351524  0.03936470    -0.24400
H568        H  0.57860697  0.91051539  0.97423146     0.14500
H569        H  0.43351119  0.80825574  0.03006634     0.14600
C570        C  0.40652003  0.84778016  0.96956545    -0.24400
H571        H  0.62794081  0.91077655  0.02393096     0.04800
H572        H  0.62437192  0.84767239  0.04594650     0.08000
H573        H  0.59030207  0.90386584  0.06315547     0.08000
H574        H  0.39590590  0.80547646  0.96636483     0.08000
H575        H  0.40677460  0.86902288  0.94444809     0.08000
H576        H  0.37619050  0.86629563  0.98613009     0.04800
C577        C  0.69021773  0.62272740  0.82184359    -0.21000
C578        C  0.74148430  0.61668404  0.83320711    -0.07600
C579        C  0.77007268  0.66170165  0.84345696     0.13300
C580        C  0.74460628  0.71060607  0.84574887    -0.21100
C581        C  0.69120062  0.71511036  0.83841703    -0.07600
C582        C  0.66528159  0.67191903  0.82325345     0.13300
C583        C  0.61064650  0.67605035  0.80949297    -0.24400
H584        H  0.66887675  0.58853132  0.81299585     0.14500
H585        H  0.76490235  0.74369607  0.85680320     0.14600
C586        C  0.82583644  0.65726556  0.85515526    -0.24400
H587        H  0.61093548  0.66278716  0.78269808     0.04800
H588        H  0.59594767  0.71724834  0.80922908     0.08000
H589        H  0.58314347  0.65033691  0.82504861     0.08000
H590        H  0.85126786  0.64186890  0.83430733     0.08000
H591        H  0.82708270  0.63012202  0.87777014     0.08000
H592        H  0.84216077  0.69617821  0.86250589     0.04800
C593        C  0.04751061  0.61896470  0.10761777    -0.21000
C594        C  0.01277908  0.60196577  0.08316086    -0.07600
C595        C  0.02608221  0.55454336  0.06575858     0.13300
C596        C  0.07065115  0.52446690  0.07448953    -0.21100
C597        C  0.10224794  0.53880734  0.10132611    -0.07600
C598        C  0.09046076  0.58788069  0.11780419     0.13300
C599        C  0.11994391  0.60690167  0.14829104    -0.24400
H600        H  0.03698355  0.65350811  0.12208236     0.14500
H601        H  0.07954366  0.48840842  0.06119721     0.14600
C602        C  0.99027042  0.53217544  0.04000908    -0.24400
H603        H  0.10127946  0.64186103  0.15999302     0.04800
H604        H  0.16049861  0.61943699  0.14057619     0.08000
H605        H  0.12052871  0.57512435  0.16834744     0.08000
H606        H  0.98462884  0.56155233  0.01894350     0.08000
H607        H  0.95281619  0.52099810  0.05273531     0.08000
H608        H  0.00527159  0.49489953  0.02943194     0.04800
C609        C  0.70590527  0.74199692  0.16088528    -0.21000
C610        C  0.71013989  0.68688865  0.16010619    -0.07600
C611        C  0.66554700  0.65501645  0.16920703     0.13300
C612        C  0.61596770  0.67804917  0.16904918    -0.21100
C613        C  0.61097866  0.73241559  0.16282691    -0.07600
C614        C  0.65641315  0.76550726  0.16182471     0.13300
C615        C  0.65361050  0.82492075  0.15763578    -0.24400
H616        H  0.74043866  0.76665033  0.15567142     0.14500
H617        H  0.58107032  0.65311517  0.17180757     0.14600
C618        C  0.66875065  0.59628590  0.17655468    -0.24400
H619        H  0.69321950  0.84384367  0.15740959     0.04800
H620        H  0.63050083  0.84147368  0.17918485     0.08000
H621        H  0.63535565  0.83561984  0.13305980     0.08000
H622        H  0.70996550  0.58289568  0.17870120     0.08000
H623        H  0.64936733  0.57420642  0.15610566     0.08000
H624        H  0.64838199  0.58650240  0.20132885     0.04800
C625        C  0.87785199  0.57821603  0.95276854    -0.21000
C626        C  0.86558673  0.52684792  0.94342514    -0.07600
C627        C  0.87035363  0.48430314  0.96764519     0.13300
C628        C  0.87773862  0.49507535  0.00144215    -0.21100
C629        C  0.87551923  0.54679189  0.01151524    -0.07600
C630        C  0.88316484  0.58868341  0.98725732     0.13300
C631        C  0.89410727  0.64441449  0.99740662    -0.24400
H632        H  0.87763920  0.61054514  0.93406082     0.14500
H633        H  0.87668921  0.46299714  0.02030401     0.14600
C634        C  0.86281895  0.42732889  0.96006684    -0.24400
H635        H  0.93091856  0.65906008  0.98440081     0.04800
H636        H  0.89953449  0.64685622  0.02521449     0.08000
H637        H  0.86105438  0.66985451  0.98976146     0.08000
H638        H  0.85560228  0.42361676  0.93329897     0.08000
H639        H  0.82851219  0.41064773  0.97495476     0.08000
H640        H  0.89858202  0.40467534  0.96639755     0.04800
C641        C  0.72176849  0.43325350  0.14954114    -0.21000
C642        C  0.75560491  0.44620755  0.12182824    -0.07600
C643        C  0.77310434  0.40601443  0.09997699     0.13300
C644        C  0.75389494  0.35438211  0.10510261    -0.21100
C645        C  0.71580575  0.34243927  0.13048049    -0.07600
C646        C  0.70094366  0.38181830  0.15386943     0.13300
C647        C  0.66172106  0.37111224  0.18271040    -0.24400
H648        H  0.70971635  0.46385108  0.16692571     0.14500
H649        H  0.76465168  0.32450438  0.08695513     0.14600
C650        C  0.81104168  0.41737055  0.07065359    -0.24400
H651        H  0.67969027  0.38103922  0.20728912     0.04800
H652        H  0.64907938  0.32899454  0.18450824     0.08000
H653        H  0.62647342  0.39597376  0.17904433     0.08000
H654        H  0.84898545  0.43122939  0.08067354     0.08000
H655        H  0.79447074  0.44778440  0.05320923     0.08000
H656        H  0.81903183  0.38159399  0.05552120     0.04800
C657        C  0.79287523  0.76323822  0.99653475    -0.21000
C658        C  0.76567289  0.74375653  0.02628991    -0.07600
C659        C  0.71032655  0.75422878  0.02838284     0.13300
C660        C  0.68437930  0.77875494  0.00071265    -0.21100
C661        C  0.71070174  0.79503087  0.97035714    -0.07600
C662        C  0.76605308  0.78771073  0.96860667     0.13300
C663        C  0.79637575  0.80315052  0.93642674    -0.24400
H664        H  0.83478672  0.75696796  0.99421587     0.14500
H665        H  0.64203535  0.78304221  0.00216538     0.14600
C666        C  0.67693205  0.73921987  0.05970792    -0.24400
H667        H  0.83890742  0.79461325  0.93857069     0.04800
H668        H  0.79194087  0.84618767  0.93099181     0.08000
H669        H  0.78107752  0.78069196  0.91474829     0.08000
H670        H  0.69527136  0.75471821  0.08288574     0.08000
H671        H  0.67168214  0.69566071  0.06210982     0.08000
H672        H  0.63676231  0.75573686  0.05845255     0.04800
C673        C  0.18845108  0.36737433  0.23982155    -0.21000
C674        C  0.16451776  0.41489345  0.22928656    -0.07600
C675        C  0.13307235  0.44188801  0.25344180     0.13300
C676        C  0.12526334  0.41983381  0.28681037    -0.21100
C677        C  0.14966685  0.37244664  0.29720352    -0.07600
C678        C  0.18182702  0.34611476  0.27316592     0.13300
C679        C  0.20768220  0.29421006  0.28195003    -0.24400
H680        H  0.21342308  0.34675399  0.22181551     0.14500
H681        H  0.09999964  0.43976977  0.30496642     0.14600
C682        C  0.10659194  0.49301010  0.24400635    -0.24400
H683        H  0.22934986  0.27791230  0.25967809     0.04800
H684        H  0.17737654  0.26456452  0.29061296     0.08000
H685        H  0.23638574  0.29986137  0.30241891     0.08000
H686        H  0.08133155  0.48712729  0.22170329     0.08000
H687        H  0.13660160  0.52411995  0.23762086     0.08000
H688        H  0.08147869  0.50741731  0.26535222     0.04800
C689        C  0.42268141  0.11867184  0.73904892    -0.21000
C690        C  0.37186296  0.09708278  0.73648315    -0.07600
C691        C  0.33619446  0.10012457  0.76447149     0.13300
C692        C  0.35216017  0.12465997  0.79433712    -0.21100
C693        C  0.40299282  0.14646315  0.79703442    -0.07600
C694        C  0.43881718  0.14314439  0.76898843     0.13300
C695        C  0.49299677  0.16765429  0.76974036    -0.24400
H696        H  0.44967229  0.11696416  0.71726367     0.14500
H697        H  0.32439940  0.12751142  0.81563633     0.14600
C698        C  0.28040446  0.08024825  0.76218043    -0.24400
H699        H  0.51488910  0.16328575  0.74511663     0.04800
H700        H  0.51612826  0.14816754  0.78998636     0.08000
H701        H  0.48994171  0.21059513  0.77474064     0.08000
H702        H  0.27998344  0.03702071  0.75779267     0.08000
H703        H  0.26106848  0.10117150  0.74074965     0.08000
H704        H  0.25710109  0.08737409  0.78593343     0.04800
C705        C  0.23614992  0.20739020  0.49675546    -0.21000
C706        C  0.19145632  0.18718856  0.48063936    -0.07600
C707        C  0.16735371  0.14134532  0.49662617     0.13300
C708        C  0.18649629  0.11920525  0.52773090    -0.21100
C709        C  0.23331127  0.13665398  0.54259172    -0.07600
C710        C  0.25778681  0.18257335  0.52653523     0.13300
C711        C  0.30675324  0.20662341  0.54067066    -0.24400
H712        H  0.25556964  0.24203884  0.48526399     0.14500
H713        H  0.16536968  0.08614416  0.53990858     0.14600
C714        C  0.12139131  0.11436425  0.48077032    -0.24400
H715        H  0.32036761  0.24211898  0.52552349     0.04800
H716        H  0.33901974  0.17739047  0.54013746     0.08000
H717        H  0.29886549  0.21912975  0.56724753     0.08000
H718        H  0.13400099  0.09682359  0.45626075     0.08000
H719        H  0.09032351  0.14348492  0.47604108     0.08000
H720        H  0.10447946  0.08197523  0.49743526     0.04800
C721        C  0.66241056  0.15109303  0.27178941    -0.21000
C722        C  0.69228383  0.10437795  0.27223508    -0.07600
C723        C  0.70695403  0.08181789  0.24062562     0.13300
C724        C  0.68986374  0.10523721  0.21010508    -0.21100
C725        C  0.65857955  0.15067098  0.20978893    -0.07600
C726        C  0.64533352  0.17442255  0.24103797     0.13300
C727        C  0.61480774  0.22515007  0.24205609    -0.24400
H728        H  0.65191579  0.16936281  0.29569873     0.14500
H729        H  0.70009220  0.08696862  0.18612910     0.14600
C730        C  0.74151528  0.03376630  0.23833104    -0.24400
H731        H  0.61055074  0.23986611  0.26843313     0.04800
H732        H  0.57476223  0.21888533  0.23228308     0.08000
H733        H  0.63566772  0.25614836  0.22621457     0.08000
H734        H  0.72111486  0.99873666  0.25033443     0.08000
H735        H  0.77918752  0.04131632  0.25115198     0.08000
H736        H  0.75114736  0.02385693  0.21145692     0.04800
C737        C  0.93995814  0.23278681  0.32463000    -0.21000
C738        C  0.98159069  0.19813085  0.31718199    -0.07600
C739        C  0.97037194  0.14819909  0.30428169     0.13300
C740        C  0.91805952  0.13079318  0.30500934    -0.21100
C741        C  0.87920827  0.15937460  0.32303087    -0.07600
C742        C  0.88845148  0.21323565  0.32899642     0.13300
C743        C  0.84626691  0.24833168  0.34328136    -0.24400
H744        H  0.94849531  0.27268479  0.33250372     0.14500
H745        H  0.90963435  0.09054127  0.29762422     0.14600
C746        C  0.01352718  0.11224195  0.29222029    -0.24400
H747        H  0.86026135  0.28996434  0.34490689     0.04800
H748        H  0.83409926  0.23448236  0.36940173     0.08000
H749        H  0.81182670  0.24786566  0.32645389     0.08000
H750        H  0.03983373  0.10204364  0.31348334     0.08000
H751        H  0.03689757  0.13241048  0.27132265     0.08000
H752        H  0.99745768  0.07467063  0.28241808     0.04800
C753        C  0.95221778  0.36262376  0.71932419    -0.21000
C754        C  0.92789661  0.38398556  0.69052148    -0.07600
C755        C  0.88633226  0.42006151  0.69509894     0.13300
C756        C  0.86832259  0.43179258  0.72815115    -0.21100
C757        C  0.89045532  0.40821919  0.75708537    -0.07600
C758        C  0.93413455  0.37414628  0.75256712     0.13300
C759        C  0.96227122  0.34985636  0.78240501    -0.24400
H760        H  0.98360238  0.33440580  0.71577393     0.14500
H761        H  0.83602704  0.45901640  0.73137179     0.14600
C762        C  0.86169521  0.44753753  0.66515794    -0.24400
H763        H  0.99714431  0.32702205  0.77398921     0.04800
H764        H  0.93558665  0.32205356  0.79697617     0.08000
H765        H  0.97608893  0.38148019  0.79930793     0.08000
H766        H  0.84514257  0.41840451  0.64754463     0.08000
H767        H  0.89222233  0.47239576  0.65176652     0.08000
H768        H  0.82935111  0.47400376  0.67325218     0.04800
C769        C  0.01776826  0.27041419  0.47414159    -0.21000
C770        C  0.99660432  0.22584867  0.45871197    -0.07600
C771        C  0.98887530  0.17937335  0.47868805     0.13300
C772        C  0.00749934  0.17721165  0.51193399    -0.21100
C773        C  0.03478178  0.22048408  0.52591502    -0.07600
C774        C  0.04314464  0.26631846  0.50520398     0.13300
C775        C  0.08124360  0.31016844  0.51314360    -0.24400
H776        H  0.02278065  0.30656145  0.45979639     0.14500
H777        H  0.99999101  0.14134202  0.52711589     0.14600
C778        C  0.96476994  0.13037659  0.46423866    -0.24400
H779        H  0.11000451  0.31535453  0.49149814     0.04800
H780        H  0.10479597  0.30174218  0.53592349     0.08000
H781        H  0.05993805  0.34791498  0.51588146     0.08000
H782        H  0.99434118  0.09839627  0.46343317     0.08000
H783        H  0.95043534  0.13781741  0.43804412     0.08000
H784        H  0.93089563  0.11682672  0.48063802     0.04800
C785        C  0.09180145  0.16415913  0.69268759    -0.21000
C786        C  0.09077801  0.21465263  0.67743080    -0.07600
C787        C  0.13901563  0.24420124  0.67418986     0.13300
C788        C  0.18681479  0.21719361  0.67655362    -0.21100
C789        C  0.18674451  0.16300627  0.68406381    -0.07600
C790        C  0.13978327  0.13914332  0.69796928     0.13300
C791        C  0.13878901  0.08506355  0.71511047    -0.24400
H792        H  0.05532235  0.14264019  0.69811952     0.14500
H793        H  0.22316926  0.23681007  0.66821637     0.14600
C794        C  0.14149459  0.30257339  0.66512095    -0.24400
H795        H  0.11952882  0.08746587  0.74075034     0.04800
H796        H  0.17890519  0.06952033  0.71873571     0.08000
H797        H  0.11628872  0.05687206  0.69964436     0.08000
H798        H  0.11534846  0.32453471  0.68279493     0.08000
H799        H  0.13012222  0.30974061  0.63831207     0.08000
H800        H  0.18189452  0.31892692  0.66752294     0.04800
C801        C  0.84255541  0.14537953  0.52642495    -0.21000
C802        C  0.85981875  0.19876147  0.52366088    -0.07600
C803        C  0.85322680  0.22529011  0.49152901     0.13300
C804        C  0.83215837  0.19762793  0.46359823    -0.21100
C805        C  0.81621398  0.14404008  0.46648523    -0.07600
C806        C  0.82129398  0.11817319  0.49860219     0.13300
C807        C  0.80526973  0.06103524  0.50333615    -0.24400
H808        H  0.84628494  0.12415316  0.55058234     0.14500
H809        H  0.82927935  0.21773309  0.43898682     0.14600
C810        C  0.86936297  0.28243003  0.48598837    -0.24400
H811        H  0.81167632  0.04638301  0.52982073     0.04800
H812        H  0.82875050  0.03646957  0.48562987     0.08000
H813        H  0.76290408  0.05626215  0.49787260     0.08000
H814        H  0.91152758  0.28773250  0.49163984     0.08000
H815        H  0.84530727  0.30774308  0.50289920     0.08000
H816        H  0.86360957  0.29625373  0.45923890     0.04800
C817        C  0.88877074  0.60207015  0.26942213    -0.21000
C818        C  0.92659041  0.63965469  0.27851033    -0.07600
C819        C  0.95011683  0.67288655  0.25254413     0.13300
C820        C  0.93584683  0.66670762  0.21838081    -0.21100
C821        C  0.89913005  0.62796074  0.20929256    -0.07600
C822        C  0.87483417  0.59560805  0.23536519     0.13300
C823        C  0.83290554  0.55512781  0.22786454    -0.24400
H824        H  0.87023276  0.57695070  0.28916106     0.14500
H825        H  0.95409156  0.69184552  0.19853188     0.14600
C826        C  0.98913720  0.71590706  0.26052141    -0.24400
H827        H  0.81546227  0.53665219  0.25159745     0.04800
H828        H  0.84994312  0.52278981  0.21262677     0.08000
H829        H  0.80067843  0.57433041  0.21371405     0.08000
H830        H  0.02539259  0.69820983  0.27077848     0.08000
H831        H  0.97153604  0.74299438  0.27944621     0.08000
H832        H  0.00085250  0.73994832  0.23740931     0.04800
C833        C  0.04704143  0.51479557  0.40654842    -0.21000
C834        C  0.99122260  0.51318840  0.41087659    -0.07600
C835        C  0.96898154  0.46704754  0.42629363     0.13300
C836        C  0.00178320  0.42314658  0.43357314    -0.21100
C837        C  0.05659126  0.42277212  0.42464285    -0.07600
C838        C  0.07950763  0.47098283  0.41312660     0.13300
C839        C  0.13755879  0.47552085  0.40484143    -0.24400
H840        H  0.06598467  0.54956348  0.39517459     0.14500
H841        H  0.98310625  0.38675851  0.44296381     0.14600
C842        C  0.91053429  0.46210756  0.43228731    -0.24400
H843        H  0.14943975  0.51668343  0.39730548     0.04800
H844        H  0.14815548  0.44970117  0.38328476     0.08000
H845        H  0.16011025  0.46370809  0.42762969     0.08000
H846        H  0.89022196  0.46730929  0.40771644     0.08000
H847        H  0.89698443  0.49279113  0.45012354     0.08000
H848        H  0.89917111  0.42273133  0.44355095     0.04800
C849        C  0.92798468  0.84475372  0.32648895    -0.21000
C850        C  0.88841975  0.80713262  0.33595386    -0.07600
C851        C  0.83578495  0.81846930  0.32828059     0.13300
C852        C  0.82340104  0.87037438  0.31811926    -0.21100
C853        C  0.86192351  0.91072994  0.31785873    -0.07600
C854        C  0.91512836  0.89718414  0.31862085     0.13300
C855        C  0.95779069  0.93864444  0.31343075    -0.24400
H856        H  0.96904974  0.83498325  0.32940868     0.14500
H857        H  0.78242325  0.88083381  0.31585232     0.14600
C858        C  0.79207033  0.77826948  0.33368401    -0.24400
H859        H  0.99754571  0.92100624  0.31441752     0.04800
H860        H  0.95487250  0.96875832  0.33349160     0.08000
H861        H  0.95380469  0.95848827  0.28805268     0.08000
H862        H  0.78759247  0.76716983  0.36118130     0.08000
H863        H  0.80085353  0.74259398  0.31865734     0.08000
H864        H  0.75379676  0.79403247  0.32526605     0.04800
C865        C  0.67692018  0.89603064  0.72207721    -0.21000
C866        C  0.63720862  0.91585060  0.70109919    -0.07600
C867        C  0.59035655  0.93386491  0.71680066     0.13300
C868        C  0.58226099  0.92590054  0.75247480    -0.21100
C869        C  0.62080648  0.90226663  0.77304448    -0.07600
C870        C  0.66973419  0.88941173  0.75755551     0.13300
C871        C  0.71383439  0.86578370  0.77772488    -0.24400
H872        H  0.71357662  0.88346861  0.71025459     0.14500
H873        H  0.54529217  0.93744533  0.76429682     0.14600
C874        C  0.54852018  0.95989708  0.69610564    -0.24400
H875        H  0.74830369  0.85618959  0.76114270     0.04800
H876        H  0.70020113  0.82854673  0.79091088     0.08000
H877        H  0.72744346  0.89440865  0.79671211     0.08000
H878        H  0.53406656  0.93204562  0.67714985     0.08000
H879        H  0.56497453  0.99580581  0.68267453     0.08000
H880        H  0.51451448  0.97197086  0.71234185     0.04800
C881        C  0.53286850  0.97551322  0.56940692    -0.21000
C882        C  0.53900351  0.92600851  0.58706560    -0.07600
C883        C  0.50025037  0.91139997  0.61184938     0.13300
C884        C  0.46102957  0.94796925  0.62069154    -0.21100
C885        C  0.45648183  0.99893048  0.60464476    -0.07600
C886        C  0.49196238  0.01142070  0.57748028     0.13300
C887        C  0.48837100  0.06327567  0.55815059    -0.24400
H888        H  0.56220434  0.98784700  0.55032011     0.14500
H889        H  0.43380746  0.93603749  0.64109197     0.14600
C890        C  0.50011063  0.85782391  0.62975313    -0.24400
H891        H  0.44962781  0.06582844  0.54583809     0.04800
H892        H  0.51956367  0.06742341  0.53789356     0.08000
H893        H  0.49263672  0.09650791  0.57591112     0.08000
H894        H  0.53544140  0.85326255  0.64549450     0.08000
H895        H  0.49924567  0.82626826  0.61056457     0.08000
H896        H  0.46518670  0.85206449  0.64707935     0.04800
C897        C  0.71674601  0.92299053  0.48572089    -0.21000
C898        C  0.76091362  0.93338963  0.50551412    -0.07600
C899        C  0.81136315  0.91765899  0.49284139     0.13300
C900        C  0.81626669  0.90130471  0.45908820    -0.21100
C901        C  0.77373230  0.90601286  0.43746664    -0.07600
C902        C  0.72307948  0.90595594  0.45223057     0.13300
C903        C  0.67652478  0.88880407  0.43231375    -0.24400
H904        H  0.67738124  0.92727845  0.49644233     0.14500
H905        H  0.85513709  0.89599575  0.44775799     0.14600
C906        C  0.86082937  0.92017314  0.51326381    -0.24400
H907        H  0.63944099  0.89101871  0.44772339     0.04800
H908        H  0.68176206  0.84710894  0.42473497     0.08000
H909        H  0.67282307  0.91370169  0.40900421     0.08000
H910        H  0.85810294  0.89172499  0.53522391     0.08000
H911        H  0.86734174  0.96092262  0.52230668     0.08000
H912        H  0.89620207  0.90929415  0.49790125     0.04800
C913        C  0.81465803  0.06906151  0.66235510    -0.21000
C914        C  0.77688398  0.06409843  0.63722508    -0.07600
C915        C  0.75936789  0.11083065  0.61997603     0.13300
C916        C  0.78309638  0.15966099  0.62638682    -0.21100
C917        C  0.82523196  0.16371114  0.64842540    -0.07600
C918        C  0.83873261  0.11829701  0.66850212     0.13300
C919        C  0.87907111  0.12065183  0.69598499    -0.24400
H920        H  0.82683986  0.03392605  0.67634422     0.14500
H921        H  0.77174417  0.19417790  0.61146660     0.14600
C922        C  0.71862544  0.11004075  0.59255819    -0.24400
H923        H  0.87896126  0.08360958  0.71186019     0.04800
H924        H  0.87012091  0.15387293  0.71314157     0.08000
H925        H  0.91924142  0.12555766  0.68466695     0.08000
H926        H  0.68008009  0.09651490  0.60365679     0.08000
H927        H  0.73146380  0.08369036  0.57174606     0.08000
H928        H  0.71250049  0.14987758  0.58079389     0.04800
C929        C  0.83069017  0.77211351  0.53158847    -0.21000
C930        C  0.77604665  0.78054477  0.53033877    -0.07600
C931        C  0.74979174  0.76003270  0.50180441     0.13300
C932        C  0.77884568  0.73360579  0.47555303    -0.21100
C933        C  0.83408048  0.72789648  0.47641889    -0.07600
C934        C  0.85974118  0.74825627  0.50516342     0.13300
C935        C  0.91875381  0.74711333  0.50799635    -0.24400
H936        H  0.85199166  0.78643799  0.55314922     0.14500
H937        H  0.75866937  0.72003231  0.45334509     0.14600
C938        C  0.69172135  0.76780428  0.49812172    -0.24400
H939        H  0.93195346  0.76195508  0.53283628     0.04800
H940        H  0.93762861  0.77269316  0.48773808     0.08000
H941        H  0.93287832  0.70618820  0.50583301     0.08000
H942        H  0.68275230  0.81070786  0.49784042     0.08000
H943        H  0.67002779  0.74775674  0.51979295     0.08000
H944        H  0.67750025  0.75106853  0.47406791     0.04800
C945        C  0.39653713  0.89804273  0.24204569    -0.21000
C946        C  0.44576119  0.88444090  0.22792294    -0.07600
C947        C  0.48875992  0.88011444  0.25028539     0.13300
C948        C  0.48040395  0.88594368  0.28598521    -0.21100
C949        C  0.43025934  0.89656306  0.29997837    -0.07600
C950        C  0.38839372  0.90423441  0.27736400     0.13300
C951        C  0.33423276  0.91766424  0.29056930    -0.24400
H952        H  0.36345826  0.90223426  0.22534059     0.14500
H953        H  0.51264934  0.87986264  0.30309151     0.14600
C954        C  0.54286232  0.86657112  0.23703916    -0.24400
H955        H  0.30624689  0.92386498  0.26959912     0.04800
H956        H  0.33595712  0.95453143  0.30528480     0.08000
H957        H  0.31883686  0.88468005  0.30713190     0.08000
H958        H  0.55703170  0.89744948  0.21825820     0.08000
H959        H  0.54175987  0.82752306  0.22474450     0.08000
H960        H  0.57161155  0.86429980  0.25785733     0.04800
C961        C  0.58580348  0.99154742  0.42960533    -0.21000
C962        C  0.60232871  0.99579381  0.39524043    -0.07600
C963        C  0.57758832  0.96215713  0.37159841     0.13300
C964        C  0.54177184  0.92268813  0.38307834    -0.21100
C965        C  0.52255583  0.92034826  0.41677243    -0.07600
C966        C  0.54494398  0.95572791  0.44036109     0.13300
C967        C  0.52657308  0.95513679  0.47715804    -0.24400
H968        H  0.60554454  0.01530036  0.44813202     0.14500
H969        H  0.52432454  0.89731013  0.36450788     0.14600
C970        C  0.58699052  0.96772779  0.33344582    -0.24400
H971        H  0.55001916  0.98312822  0.49209624     0.04800
H972        H  0.53078707  0.91480085  0.48857857     0.08000
H973        H  0.48499090  0.96740744  0.47936160     0.08000
H974        H  0.60692266  0.93192936  0.32385256     0.08000
H975        H  0.61067087  0.00337358  0.32583962     0.08000
H976        H  0.54869983  0.97191982  0.32072885     0.04800
C977        C  0.25343855  0.06938238  0.33024646    -0.21000
C978        C  0.29481211  0.06517868  0.35285500    -0.07600
C979        C  0.31567145  0.11196865  0.36705023     0.13300
C980        C  0.28930177  0.16000114  0.36252218    -0.21100
C981        C  0.24277662  0.16222862  0.34436590    -0.07600
C982        C  0.22888202  0.11812597  0.32444779     0.13300
C983        C  0.18661139  0.12053590  0.29823280    -0.24400
H984        H  0.23921339  0.03428683  0.31787406     0.14500
H985        H  0.30145288  0.19406284  0.37675885     0.14600
C986        C  0.36228390  0.11104373  0.39002741    -0.24400
H987        H  0.20241525  0.10570803  0.27363628     0.04800
H988        H  0.17320193  0.16155139  0.29317087     0.08000
H989        H  0.15255521  0.09533796  0.30686233     0.08000
H990        H  0.39729059  0.09590482  0.37607932     0.08000
H991        H  0.35315458  0.08577881  0.41293645     0.08000
H992        H  0.37250662  0.15114765  0.39896570     0.04800
C993        C  0.35875539  0.95830185  0.50919512    -0.21000
C994        C  0.32008122  0.98500740  0.49082740    -0.07600
C995        C  0.27072317  0.99436220  0.50633693     0.13300
C996        C  0.26236328  0.97940345  0.54039430    -0.21100
C997        C  0.30203680  0.95513690  0.55950850    -0.07600
C998        C  0.34924285  0.94080305  0.54285662     0.13300
C999        C  0.38749243  0.90265282  0.55822610    -0.24400
H1000       H  0.39427124  0.94559921  0.49607350     0.14500
H1001       H  0.22466238  0.98819631  0.55221241     0.14600
C1002       C  0.22608715  0.01830631  0.48665210    -0.24400
H1003       H  0.42708401  0.92111674  0.55803135     0.04800
H1004       H  0.38962102  0.86691597  0.54233297     0.08000
H1005       H  0.37588317  0.88903891  0.58445107     0.08000
H1006       H  0.21434201  0.99349814  0.46522809     0.08000
H1007       H  0.23805086  0.05808241  0.47640966     0.08000
H1008       H  0.19009333  0.02144740  0.50287649     0.04800
C1009       C  0.21007768  0.76474591  0.39368459    -0.21000
C1010       C  0.22360507  0.79727036  0.36521094    -0.07600
C1011       C  0.18515770  0.80967133  0.34095391     0.13300
C1012       C  0.13375652  0.79002430  0.34636778    -0.21100
C1013       C  0.11977880  0.76100132  0.37624238    -0.07600
C1014       C  0.15840053  0.74775601  0.40001700     0.13300
C1015       C  0.14562399  0.71491177  0.43180668    -0.24400
H1016       H  0.23932304  0.75554470  0.41249322     0.14500
H1017       H  0.10397761  0.79856735  0.32777649     0.14600
C1018       C  0.19808059  0.84333089  0.30950088    -0.24400
H1019       H  0.18081164  0.70806729  0.44746833     0.04800
H1020       H  0.13014713  0.67586096  0.42435643     0.08000
H1021       H  0.11597851  0.73517338  0.44796214     0.08000
H1022       H  0.23141367  0.82577615  0.29505716     0.08000
H1023       H  0.20864625  0.88424027  0.31656921     0.08000
H1024       H  0.16409336  0.84603378  0.29234328     0.04800
C1025       C  0.14908449  0.56726809  0.79043399    -0.21000
C1026       C  0.12989645  0.60547079  0.81300921    -0.07600
C1027       C  0.10251332  0.64954516  0.79913124     0.13300
C1028       C  0.09608455  0.65442682  0.76371662    -0.21100
C1029       C  0.11760721  0.61802354  0.74100114    -0.07600
C1030       C  0.14388774  0.57335950  0.75462058     0.13300
C1031       C  0.16598424  0.53186985  0.73158260    -0.24400
H1032       H  0.17062970  0.53393747  0.80068731     0.14500
H1033       H  0.07553910  0.68844100  0.75345556     0.14600
C1034       C  0.07991394  0.69244868  0.82114442    -0.24400
H1035       H  0.18342731  0.49866177  0.74637533     0.04800
H1036       H  0.19732334  0.54953310  0.71455469     0.08000
H1037       H  0.13424092  0.51546314  0.71590183     0.08000
H1038       H  0.11169984  0.71535006  0.83299876     0.08000
H1039       H  0.05315283  0.67504108  0.84117383     0.08000
H1040       H  0.05675172  0.72128522  0.80604258     0.04800
C1041       C  0.01022742  0.52497992  0.59593712    -0.21000
C1042       C  0.06604177  0.52326466  0.59721202    -0.07600
C1043       C  0.09066131  0.47895618  0.58317965     0.13300
C1044       C  0.05928933  0.43611216  0.57202351    -0.21100
C1045       C  0.00315179  0.43612299  0.57393420    -0.07600
C1046       C  0.97911318  0.48363803  0.58329856     0.13300
C1047       C  0.92098096  0.49177764  0.57935989    -0.24400
H1048       H  0.98969362  0.55845510  0.60606861     0.14500
H1049       H  0.07928498  0.40079915  0.56397414     0.14600
C1050       C  0.14957198  0.47517174  0.58211379    -0.24400
H1051       H  0.90897405  0.53216329  0.58671087     0.04800
H1052       H  0.89767930  0.46309776  0.59530334     0.08000
H1053       H  0.91088268  0.48656489  0.55227772     0.08000
H1054       H  0.16470559  0.47702646  0.60837466     0.08000
H1055       H  0.16658340  0.50856228  0.56636196     0.08000
H1056       H  0.16284958  0.43755987  0.57080857     0.04800
C1057       C  0.16597341  0.89449933  0.70459502    -0.21000
C1058       C  0.22042645  0.89998506  0.70149426    -0.07600
C1059       C  0.25132592  0.85336546  0.70433132     0.13300
C1060       C  0.22824036  0.80452706  0.69707298    -0.21100
C1061       C  0.17429161  0.80125152  0.69178483    -0.07600
C1062       C  0.14271862  0.84440592  0.70188557     0.13300
C1063       C  0.08456790  0.83953846  0.70772307    -0.24400
H1064       H  0.14145519  0.92926582  0.70599464     0.14500
H1065       H  0.25297390  0.77051023  0.69284592     0.14600
C1066       C  0.30908554  0.85433253  0.71192509    -0.24400
H1067       H  0.07389435  0.85353906  0.73358972     0.04800
H1068       H  0.07065489  0.79789896  0.70638350     0.08000
H1069       H  0.06517377  0.86483170  0.68846787     0.08000
H1070       H  0.32210621  0.89336932  0.72117130     0.08000
H1071       H  0.33251627  0.84412889  0.68876174     0.08000
H1072       H  0.31695037  0.82482971  0.73259004     0.04800
C1073       C  0.29903217  0.75618135  0.50498130    -0.21000
C1074       C  0.27761640  0.80067786  0.48750956    -0.07600
C1075       C  0.22871913  0.81937627  0.50143524     0.13300
C1076       C  0.20445454  0.79487607  0.53074343    -0.21100
C1077       C  0.22482941  0.75035512  0.54795140    -0.07600
C1078       C  0.27316152  0.73072538  0.53435978     0.13300
C1079       C  0.29790848  0.68332545  0.55099807    -0.24400
H1080       H  0.33571763  0.74039732  0.49526714     0.14500
H1081       H  0.16748236  0.81065067  0.54002447     0.14600
C1082       C  0.20048010  0.86621249  0.48622780    -0.24400
H1083       H  0.33572088  0.67323495  0.53809647     0.04800
H1084       H  0.27101589  0.64857603  0.54978016     0.08000
H1085       H  0.30570091  0.69157479  0.57810363     0.08000
H1086       H  0.18617877  0.85687907  0.46054068     0.08000
H1087       H  0.22724475  0.90087012  0.48495478     0.08000
H1088       H  0.16548702  0.87758778  0.50178184     0.04800
C1089       C  0.98878268  0.61879833  0.53348072    -0.21000
C1090       C  0.03826918  0.63666484  0.54254497    -0.07600
C1091       C  0.08181081  0.62949740  0.51952856     0.13300
C1092       C  0.07265105  0.61499110  0.48613143    -0.21100
C1093       C  0.02154466  0.61329769  0.47504287    -0.07600
C1094       C  0.97996307  0.60654523  0.49964545     0.13300
C1095       C  0.92520958  0.59121905  0.49043914    -0.24400
H1096       H  0.95597786  0.61960122  0.55167302     0.14500
H1097       H  0.10480472  0.61523520  0.46749504     0.14600
C1098       C  0.13758283  0.64096648  0.52830864    -0.24400
H1099       H  0.89715777  0.62299699  0.49679138     0.04800
H1100       H  0.91315574  0.55452505  0.50482261     0.08000
H1101       H  0.92311875  0.58327064  0.46322574     0.08000
H1102       H  0.14779221  0.61805834  0.55143978     0.08000
H1103       H  0.14228357  0.68397081  0.53135437     0.08000
H1104       H  0.16587902  0.62966055  0.50776609     0.04800
C1105       C  0.89390154  0.72812406  0.63381393    -0.21000
C1106       C  0.93310201  0.75894006  0.64844336    -0.07600
C1107       C  0.91840111  0.80158072  0.66883273     0.13300
C1108       C  0.86555762  0.81602879  0.67119428    -0.21100
C1109       C  0.82682571  0.78955403  0.65293090    -0.07600
C1110       C  0.84069481  0.74253754  0.63598701     0.13300
C1111       C  0.80051981  0.70782866  0.61961388    -0.24400
H1112       H  0.90523118  0.69328994  0.61990119     0.14500
H1113       H  0.85511324  0.85096815  0.68526929     0.14600
C1114       C  0.95851781  0.83324093  0.68695742    -0.24400
H1115       H  0.81839270  0.67122870  0.60958903     0.04800
H1116       H  0.78263375  0.72891675  0.59784690     0.08000
H1117       H  0.76947961  0.69585842  0.63876721     0.08000
H1118       H  0.98635742  0.85103912  0.66763008     0.08000
H1119       H  0.97914139  0.80684725  0.70509290     0.08000
H1120       H  0.94057367  0.86576136  0.70166818     0.04800
loop_ 
_geom_bond_atom_site_label_1 
_geom_bond_atom_site_label_2 
_geom_bond_distance 
_geom_bond_site_symmetry_2 
_ccdc_geom_bond_type 
O1           C16   1.275       .  A
O1           Al9   1.976       .  S
C2           O12   1.277       .  A
C2            O3   1.295       .  A
C2         C1090   1.469       .  S
O3           Al5   1.972       .  S
O4            C6   1.244       .  A
O4           Al5   1.862       .  S
Al5          O13   1.873       .  S
Al5          O15   1.887       .  S
Al5          O14   1.751       .  S
C6           O19   1.285       .  A
C6         C1042   1.520       .  S
O7           C17   1.269       .  A
O7           Al9   2.015       .  S
O8           C21   1.286       .  A
O8          Al18   1.861       .  S
Al9          O22   1.998       .  S
Al9          O19   2.033       .  S
Al9          O14   1.737       .  S
O10          C17   1.249       .  A
O10         Al18   1.917       .  S
O11          C20   1.249   1_455  A
O11         Al18   1.940       .  S
O12         Al18   1.861       .  S
O13          C20   1.234   1_455  A
O14         Al18   1.754       .  S
O15          C16   1.263       .  A
C16        C1029   1.498       .  S
C17        C1077   1.550       .  S
C20        C1106   1.474       .  S
C21          O22   1.306       .  A
C21        C1061   1.482       .  S
O23          C38   1.273       .  A
O23         Al31   1.906       .  S
C24          O34   1.247       .  A
C24          O25   1.262       .  A
C24         C994   1.443       .  S
O25         Al27   1.904       .  S
O26          C28   1.227       .  A
O26         Al27   1.858       .  S
Al27         O35   1.860   1_565  S
Al27         O37   1.988       .  S
Al27         O36   1.762       .  S
C28          O41   1.267       .  A
C28         C965   1.498       .  S
O29          C39   1.297       .  A
O29         Al31   2.017       .  S
O30          C43   1.254       .  A
O30         Al40   1.875       .  S
Al31         O44   1.940       .  S
Al31         O41   2.013       .  S
Al31         O36   1.800       .  S
O32          C39   1.279       .  A
O32         Al40   1.968       .  S
O33          C42   1.262   1_565  A
O33         Al40   1.927       .  S
O34         Al40   1.800       .  S
O35          C42   1.247       .  A
O36         Al40   1.754       .  S
O37          C38   1.285       .  A
C38         C949   1.501       .  S
C39        C1074   1.557       .  S
C42         C978   1.478       .  S
C43          O44   1.269       .  A
C43        C1010   1.468       .  S
O45          C60   1.278       .  A
O45         Al53   1.871       .  S
C46          O56   1.252       .  A
C46          O47   1.268       .  A
C46         C898   1.479       .  S
O47         Al49   1.905       .  S
O48          C50   1.223       .  A
O48         Al49   1.849       .  S
Al49         O57   1.842   1_565  S
Al49         O59   2.021       .  S
Al49         O58   1.737       .  S
C50          O63   1.261       .  A
C50         C882   1.519       .  S
O51          C61   1.298       .  A
O51         Al53   1.977       .  S
O52          C65   1.250       .  A
O52         Al62   1.880       .  S
Al53         O66   1.962       .  S
Al53         O63   2.015       .  S
Al53         O58   1.798       .  S
O54          C61   1.289       .  A
O54         Al62   1.970       .  S
O55          C64   1.263   1_565  A
O55         Al62   1.939       .  S
O56         Al62   1.856       .  S
O57          C64   1.243       .  A
O58         Al62   1.751       .  S
O59          C60   1.300       .  A
C60         C866   1.496       .  S
C61         C930   1.531       .  S
C64         C914   1.490       .  S
C65          O66   1.262       .  A
C65        C1109   1.486       .  S
O67          C82   1.274       .  A
O67         Al75   1.946       .  S
C68          O78   1.280   1_455  A
C68          O69   1.299       .  A
C68        C1093   1.463       .  S
O69         Al71   1.988       .  S
O70          C72   1.243       .  A
O70         Al71   1.862   1_655  S
Al71         O79   1.877       .  S
Al71         O81   1.893   1_455  S
Al71         O80   1.740   1_455  S
C72          O85   1.287       .  A
C72         C834   1.524       .  S
O73          C83   1.268       .  A
O73         Al75   2.009       .  S
O74          C87   1.287       .  A
O74         Al84   1.845       .  S
Al75         O88   2.002       .  S
Al75         O85   2.039       .  S
Al75         O80   1.724       .  S
O76          C83   1.242       .  A
O76         Al84   1.899       .  S
O77          C86   1.244       .  A
O77         Al84   1.912   1_455  S
O78         Al84   1.851       .  S
O79          C86   1.235       .  A
O80         Al84   1.741       .  S
O81          C82   1.264       .  A
C82         C818   1.490       .  S
C83         C933   1.521       .  S
C86        C1013   1.462       .  S
C87          O88   1.307       .  A
C87         C850   1.481       .  S
O89         C104   1.266       .  A
O89         Al97   1.865       .  S
C90         O100   1.249       .  A
C90          O91   1.270       .  A
C90         C773   1.480       .  S
O91         Al93   1.924       .  S
O92          C94   1.231   1_455  A
O92         Al93   1.855       .  S
Al93        O101   1.842       .  S
Al93        O103   1.990   1_455  S
Al93        O102   1.745   1_455  S
C94         O107   1.272       .  A
C94        C1045   1.525   1_655  S
O95         C105   1.286       .  A
O95         Al97   1.951       .  S
O96         C109   1.251       .  A
O96        Al106   1.877       .  S
Al97        O110   1.973       .  S
Al97        O107   2.037       .  S
Al97        O102   1.794       .  S
O98         C105   1.288       .  A
O98        Al106   1.998       .  S
O99         C108   1.267       .  A
O99        Al106   1.944   1_455  S
O100       Al106   1.820   1_455  S
O101        C108   1.241       .  A
O102       Al106   1.766       .  S
O103        C104   1.285       .  A
C104        C754   1.480       .  S
C105        C802   1.532       .  S
C108        C786   1.485       .  S
C109        O110   1.276       .  A
C109        C917   1.492       .  S
O111        C126   1.256       .  A
O111       Al119   1.902       .  S
C112        O122   1.274       .  A
C112        O113   1.280       .  A
C112        C901   1.459       .  S
O113       Al115   1.962       .  S
O114        C116   1.246   1_565  A
O114       Al115   1.810       .  S
Al115       O123   1.879       .  S
Al115       O125   1.888   1_565  S
Al115       O124   1.772   1_565  S
C116        O129   1.282       .  A
C116        C962   1.496   1_545  S
O117        C127   1.262       .  A
O117       Al119   1.959       .  S
O118        C131   1.266       .  A
O118       Al128   1.816       .  S
Al119       O132   1.984       .  S
Al119       O129   2.000       .  S
Al119       O124   1.777       .  S
O120        C127   1.253       .  A
O120       Al128   1.928       .  S
O121        C130   1.254       .  A
O121       Al128   1.922   1_565  S
O122       Al128   1.844   1_565  S
O123        C130   1.240       .  A
O124       Al128   1.779       .  S
O125        C126   1.254       .  A
C126        C722   1.494       .  S
C127        C805   1.517       .  S
C130        C853   1.464       .  S
C131        O132   1.291       .  A
C131        C741   1.475       .  S
O133        C148   1.284       .  A
O133       Al141   1.967       .  S
C134        O144   1.272       .  A
C134        O135   1.279       .  A
C134        C997   1.468       .  S
O135       Al137   1.917       .  S
O136        C138   1.234       .  A
O136       Al137   1.870   1_545  S
Al137       O145   1.820       .  S
Al137       O147   1.910   1_565  S
Al137       O146   1.774   1_565  S
C138        O151   1.281       .  A
C138        C885   1.523   1_545  S
O139        C149   1.265       .  A
O139       Al141   1.946       .  S
O140        C153   1.255       .  A
O140       Al150   1.823       .  S
Al141       O154   1.968       .  S
Al141       O151   2.064       .  S
Al141       O146   1.766       .  S
O142        C149   1.273       .  A
O142       Al150   1.977       .  S
O143        C152   1.259       .  A
O143       Al150   1.953   1_565  S
O144       Al150   1.903   1_565  S
O145        C152   1.233       .  A
O146       Al150   1.770       .  S
O147        C148   1.281       .  A
C148        C690   1.481       .  S
C149        C709   1.555       .  S
C152       C1058   1.482       .  S
C153        O154   1.280       .  A
C153        C789   1.481       .  S
O155        C170   1.266       .  A
O155       Al163   1.922       .  S
C156        O166   1.255       .  A
C156        O157   1.276       .  A
C156        C770   1.458   1_455  S
O157       Al159   1.959       .  S
O158        C160   1.239       .  A
O158       Al159   1.805       .  S
Al159       O167   1.864       .  S
Al159       O169   1.927       .  S
Al159       O168   1.768       .  S
C160        O173   1.286       .  A
C160        C837   1.514       .  S
O161        C171   1.284       .  A
O161       Al163   1.996       .  S
O162        C175   1.258       .  A
O162       Al172   1.853       .  S
Al163       O176   1.987       .  S
Al163       O173   2.036       .  S
Al163       O168   1.766       .  S
O164        C171   1.273       .  A
O164       Al172   1.971       .  S
O165        C174   1.262       .  A
O165       Al172   1.944       .  S
O166       Al172   1.814       .  S
O167        C174   1.240       .  A
O168       Al172   1.784       .  S
O169        C170   1.264       .  A
C170        C677   1.497       .  S
C171        C706   1.548       .  S
C174        C738   1.466   1_455  S
C175        O176   1.285       .  A
C175        C981   1.486       .  S
O177        C192   1.267       .  A
O177       Al185   1.931       .  S
C178        O188   1.271       .  A
C178        O179   1.288       .  A
C178        C629   1.445       .  S
O179       Al181   1.944       .  S
O180        C182   1.240       .  A
O180       Al181   1.805       .  S
Al181       O189   1.888       .  S
Al181       O191   1.877       .  S
Al181       O190   1.750       .  S
C182        O195   1.287       .  A
C182        C594   1.498   1_655  S
O183        C193   1.277       .  A
O183       Al185   2.035       .  S
O184        C197   1.280       .  A
O184       Al194   1.848       .  S
Al185       O198   1.980       .  S
Al185       O195   2.019       .  S
Al185       O190   1.751       .  S
O186        C193   1.243       .  A
O186       Al194   1.883       .  S
O187        C196   1.250       .  A
O187       Al194   1.936       .  S
O188       Al194   1.836       .  S
O189        C196   1.239       .  A
O190       Al194   1.763       .  S
O191        C192   1.258       .  A
C192        C821   1.488       .  S
C193        C658   1.541       .  S
C196        C642   1.468       .  S
C197        O198   1.299       .  A
C197        C610   1.472       .  S
O199        C214   1.266       .  A
O199       Al207   1.929       .  S
C200        O210   1.274       .  A
C200        O201   1.287       .  A
C200        C562   1.458       .  S
O201       Al203   1.969       .  S
O202        C204   1.240       .  A
O202       Al203   1.789       .  S
Al203       O211   1.880       .  S
Al203       O213   1.902       .  S
Al203       O212   1.764       .  S
C204        O217   1.283       .  A
C204        C530   1.495   1_565  S
O205        C215   1.268       .  A
O205       Al207   1.989       .  S
O206        C219   1.281       .  A
O206       Al216   1.862       .  S
Al207       O220   1.999       .  S
Al207       O217   2.018       .  S
Al207       O212   1.751       .  S
O208        C215   1.251       .  A
O208       Al216   1.923       .  S
O209        C218   1.252       .  A
O209       Al216   1.943       .  S
O210       Al216   1.835       .  S
O211        C218   1.237       .  A
O212       Al216   1.774       .  S
O213        C214   1.261       .  A
C214        C869   1.498       .  S
C215        C661   1.524       .  S
C218        C549   1.471       .  S
C219        O220   1.300       .  A
C219        C581   1.482       .  S
O221        C236   1.293       .  A
O221       Al229   1.981       .  S
C222        O232   1.279       .  A
C222        O223   1.282       .  A
C222        C482   1.445       .  S
O223       Al225   1.920       .  S
O224        C226   1.225       .  A
O224       Al225   1.843       .  S
Al225       O233   1.821       .  S
Al225       O235   1.910       .  S
Al225       O234   1.769       .  S
C226        O239   1.276       .  A
C226        C466   1.508       .  S
O227        C237   1.266       .  A
O227       Al229   1.947       .  S
O228        C241   1.262       .  A
O228       Al238   1.853       .  S
Al229       O242   1.945       .  S
Al229       O239   2.072       .  S
Al229       O234   1.758       .  S
O230        C237   1.266       .  A
O230       Al238   1.951       .  S
O231        C240   1.254       .  A
O231       Al238   1.938       .  S
O232       Al238   1.891       .  S
O233        C240   1.230       .  A
O234       Al238   1.752       .  S
O235        C236   1.286       .  A
C236        C725   1.485       .  S
C237        C514   1.533       .  S
C240        C498   1.465       .  S
C241        O242   1.279       .  A
C241        C645   1.465       .  S
O243        C258   1.274       .  A
O243       Al251   1.951       .  S
C244        O254   1.277       .  A
C244        O245   1.286       .  A
C244        C626   1.455       .  S
O245       Al247   1.946       .  S
O246        C248   1.237       .  A
O246       Al247   1.867       .  S
Al247       O255   1.882       .  S
Al247       O257   1.902       .  S
Al247       O256   1.767       .  S
C248        O261   1.289       .  A
C248        C434   1.539       .  S
O249        C259   1.269       .  A
O249       Al251   2.006       .  S
O250        C263   1.281       .  A
O250       Al260   1.858       .  S
Al251       O264   1.975       .  S
Al251       O261   2.071       .  S
Al251       O256   1.756       .  S
O252        C259   1.244       .  A
O252       Al260   1.889       .  S
O253        C262   1.243       .  A
O253       Al260   1.889       .  S
O254       Al260   1.862       .  S
O255        C262   1.240       .  A
O256       Al260   1.743       .  S
O257        C258   1.271       .  A
C258        C757   1.490       .  S
C259        C517   1.542       .  S
C262        C578   1.474       .  S
C263        O264   1.299       .  A
C263        C450   1.477       .  S
O265        C280   1.260       .  A
O265       Al273   1.889       .  S
C266        O276   1.260       .  A
C266        O267   1.286       .  A
C266        C405   1.479       .  S
O267       Al269   1.991       .  S
O268        C270   1.235       .  A
O268       Al269   1.802       .  S
Al269       O277   1.870       .  S
Al269       O279   1.942       .  S
Al269       O278   1.747       .  S
C270        O283   1.288       .  A
C270        C597   1.515       .  S
O271        C281   1.281       .  A
O271       Al273   1.978       .  S
O272        C285   1.259       .  A
O272       Al282   1.844       .  S
Al273       O286   1.997       .  S
Al273       O283   2.044       .  S
Al273       O278   1.766       .  S
O274        C281   1.271       .  A
O274       Al282   1.959       .  S
O275        C284   1.259       .  A
O275       Al282   1.957       .  S
O276       Al282   1.806       .  S
O277        C284   1.235       .  A
O278       Al282   1.773       .  S
O279        C280   1.267       .  A
C280        C674   1.501       .  S
C281        C389   1.533       .  S
C284        C421   1.472       .  S
C285        O286   1.288       .  A
C285        C501   1.478       .  S
O287        C302   1.260       .  A
O287       Al295   1.881       .  S
C288        O298   1.262       .  A
C288        O289   1.266       .  A
C288        C485   1.482       .  S
O289       Al291   1.921       .  S
O290        C292   1.233       .  A
O290       Al291   1.845       .  S
Al291       O299   1.871       .  S
Al291       O301   1.947       .  S
Al291       O300   1.755       .  S
C292        O305   1.280       .  A
C292        C533   1.498       .  S
O293        C303   1.283       .  A
O293       Al295   1.975       .  S
O294        C307   1.266       .  A
O294       Al304   1.869       .  S
Al295       O308   1.958       .  S
Al295       O305   2.040       .  S
Al295       O300   1.779       .  S
O296        C303   1.271       .  A
O296       Al304   1.952       .  S
O297        C306   1.267       .  A
O297       Al304   1.948       .  S
O298       Al304   1.880       .  S
O299        C306   1.249       .  A
O300       Al304   1.773       .  S
O301        C302   1.271       .  A
C302        C693   1.488       .  S
C303        C386   1.524       .  S
C306        C453   1.474       .  S
C307        O308   1.280       .  A
C307        C370   1.481       .  S
O309        C324   1.262       .  A
O309       Al317   1.896       .  S
C310        O320   1.259       .  A
C310        O311   1.269       .  A
C310        C565   1.477       .  S
O311       Al313   1.925       .  S
O312        C314   1.229       .  A
O312       Al313   1.833       .  S
Al313       O321   1.864       .  S
Al313       O323   1.963       .  S
Al313       O322   1.751       .  S
C314        O327   1.282       .  A
C314        C469   1.492       .  S
O315        C325   1.284       .  A
O315       Al317   2.003       .  S
O316        C329   1.261       .  A
O316       Al326   1.830       .  S
Al317       O330   1.977       .  S
Al317       O327   2.044       .  S
Al317       O322   1.775       .  S
O318        C325   1.265       .  A
O318       Al326   1.940       .  S
O319        C328   1.265       .  A
O319       Al326   1.933       .  S
O320       Al326   1.857       .  S
O321        C328   1.248       .  A
O322       Al326   1.768       .  S
O323        C324   1.272       .  A
C324        C946   1.508       .  S
C325        C357   1.539       .  S
C328        C613   1.464       .  S
C329        O330   1.285       .  A
C329        C418   1.478       .  S
O331        C346   1.278       .  A
O331       Al339   1.876       .  S
C332        O342   1.257       .  A
C332        O333   1.270       .  A
C332        C402   1.476       .  S
O333       Al335   1.920       .  S
O334        C336   1.225       .  A
O334       Al335   1.853       .  S
Al335       O343   1.849       .  S
Al335       O345   2.022       .  S
Al335       O344   1.737       .  S
C336        O349   1.265       .  A
C336        C437   1.529       .  S
O337        C347   1.300       .  A
O337       Al339   1.981       .  S
O338        C351   1.240       .  A
O338       Al348   1.869       .  S
Al339       O352   1.983       .  S
Al339       O349   2.024       .  S
Al339       O344   1.798       .  S
O340        C347   1.291       .  A
O340       Al348   1.975       .  S
O341        C350   1.253       .  A
O341       Al348   1.905       .  S
O342       Al348   1.871       .  S
O343        C350   1.246       .  A
O344       Al348   1.739       .  S
O345        C346   1.303       .  A
C346       C1026   1.498       .  S
C347        C354   1.534       .  S
C350        C373   1.480       .  S
C351        O352   1.264       .  A
C351        C546   1.484       .  S
C353        C354   1.406       .  A
C353        C358   1.409   1_556  A
C353        H360   1.083       .  S
C354        C355   1.424   1_556  A
C355        C356   1.438       .  A
C355        C362   1.502       .  S
C356        C357   1.419       .  A
C356        H361   1.083       .  S
C357        C358   1.430       .  A
C358        C359   1.510       .  S
C359        H363   1.111       .  S
C359        H364   1.108       .  S
C359        H365   1.105       .  S
C362        H366   1.110       .  S
C362        H367   1.110   1_554  S
C362        H368   1.110       .  S
C369        C370   1.409       .  A
C369        C374   1.400       .  A
C369        H376   1.084       .  S
C370        C371   1.407       .  A
C371        C372   1.397       .  A
C371        C378   1.505       .  S
C372        C373   1.411       .  A
C372        H377   1.084       .  S
C373        C374   1.413       .  A
C374        C375   1.507       .  S
C375        H379   1.111       .  S
C375        H380   1.109       .  S
C375        H381   1.110       .  S
C378        H382   1.110       .  S
C378        H383   1.109       .  S
C378        H384   1.111       .  S
C385        C386   1.406       .  A
C385        C390   1.415   1_556  A
C385        H392   1.084       .  S
C386        C387   1.419       .  A
C387        C388   1.432   1_556  A
C387        C394   1.503       .  S
C388        C389   1.417       .  A
C388        H393   1.083       .  S
C389        C390   1.428       .  A
C390        C391   1.509       .  S
C391        H395   1.111       .  S
C391        H396   1.110       .  S
C391        H397   1.108       .  S
C394        H398   1.110       .  S
C394        H399   1.111       .  S
C394        H400   1.111       .  S
C401        C402   1.408   1_554  A
C401        C406   1.404       .  A
C401        H408   1.085       .  S
C402        C403   1.415   1_556  A
C403        C404   1.402       .  A
C403        C410   1.509   1_554  S
C404        C405   1.410       .  A
C404        H409   1.085       .  S
C405        C406   1.407       .  A
C406        C407   1.501       .  S
C407        H411   1.109       .  S
C407        H412   1.109       .  S
C407        H413   1.105       .  S
C410        H414   1.108       .  S
C410        H415   1.111       .  S
C410        H416   1.110       .  S
C417        C418   1.416       .  A
C417        C422   1.397       .  A
C417        H424   1.084       .  S
C418        C419   1.409       .  A
C419        C420   1.399       .  A
C419        C426   1.507       .  S
C420        C421   1.411       .  A
C420        H425   1.082       .  S
C421        C422   1.400       .  A
C422        C423   1.506       .  S
C423        H427   1.111       .  S
C423        H428   1.109       .  S
C423        H429   1.110       .  S
C426        H430   1.110       .  S
C426        H431   1.110       .  S
C426        H432   1.111       .  S
C433        C434   1.409       .  A
C433        C438   1.432   1_655  A
C433        H440   1.082       .  S
C434        C435   1.445       .  A
C435        C436   1.408   1_655  A
C435        C442   1.515       .  S
C436        C437   1.390       .  A
C436        H441   1.078       .  S
C437        C438   1.432       .  A
C438        C439   1.502       .  S
C439        H443   1.110       .  S
C439        H444   1.108       .  S
C439        H445   1.109       .  S
C442        H446   1.104       .  S
C442        H447   1.111   1_655  S
C442        H448   1.110   1_655  S
C449        C450   1.397       .  A
C449        C454   1.400       .  A
C449        H456   1.084       .  S
C450        C451   1.418       .  A
C451        C452   1.399       .  A
C451        C458   1.507       .  S
C452        C453   1.398       .  A
C452        H457   1.084       .  S
C453        C454   1.423       .  A
C454        C455   1.508       .  S
C455        H459   1.111       .  S
C455        H460   1.110       .  S
C455        H461   1.107       .  S
C458        H462   1.110       .  S
C458        H463   1.111       .  S
C458        H464   1.110       .  S
C465        C466   1.414       .  A
C465        C470   1.431       .  A
C465        H472   1.082       .  S
C466        C467   1.422       .  A
C467        C468   1.402   1_545  A
C467        C474   1.511       .  S
C468        C469   1.401       .  A
C468        H473   1.079       .  S
C469        C470   1.421   1_565  A
C470        C471   1.498   1_545  S
C471        H475   1.108   1_565  S
C471        H476   1.110       .  S
C471        H477   1.110       .  S
C474        H478   1.111       .  S
C474        H479   1.110       .  S
C474        H480   1.111   1_545  S
C481        C482   1.409       .  A
C481        C486   1.408   1_554  A
C481        H488   1.084       .  S
C482        C483   1.397       .  A
C483        C484   1.386   1_554  A
C483        C490   1.506       .  S
C484        C485   1.405       .  A
C484        H489   1.070       .  S
C485        C486   1.413       .  A
C486        C487   1.505       .  S
C487        H491   1.111       .  S
C487        H492   1.108       .  S
C487        H493   1.110       .  S
C490        H494   1.111       .  S
C490        H495   1.110       .  S
C490        H496   1.111       .  S
C497        C498   1.407       .  A
C497        C502   1.398       .  A
C497        H504   1.083       .  S
C498        C499   1.400       .  A
C499        C500   1.402       .  A
C499        C506   1.506       .  S
C500        C501   1.418       .  A
C500        H505   1.085       .  S
C501        C502   1.410       .  A
C502        C503   1.507       .  S
C503        H507   1.111       .  S
C503        H508   1.108       .  S
C503        H509   1.110       .  S
C506        H510   1.110       .  S
C506        H511   1.111       .  S
C506        H512   1.111       .  S
C513        C514   1.405   1_556  A
C513        C518   1.421       .  A
C513        H520   1.084       .  S
C514        C515   1.428   1_554  A
C515        C516   1.432       .  A
C515        C522   1.505   1_556  S
C516        C517   1.413       .  A
C516        H521   1.083       .  S
C517        C518   1.436       .  A
C518        C519   1.511       .  S
C519        H523   1.111       .  S
C519        H524   1.111       .  S
C519        H525   1.109       .  S
C522        H526   1.110       .  S
C522        H527   1.108       .  S
C522        H528   1.111       .  S
C529        C530   1.408       .  A
C529        C534   1.424       .  A
C529        H536   1.083       .  S
C530        C531   1.424       .  A
C531        C532   1.406       .  A
C531        C538   1.510       .  S
C532        C533   1.401       .  A
C532        H537   1.079       .  S
C533        C534   1.419       .  A
C534        C535   1.495       .  S
C535        H539   1.109       .  S
C535        H540   1.103       .  S
C535        H541   1.108       .  S
C538        H542   1.110       .  S
C538        H543   1.110       .  S
C538        H544   1.110       .  S
C545        C546   1.414       .  A
C545        C550   1.403       .  A
C545        H552   1.084       .  S
C546        C547   1.411       .  A
C547        C548   1.402       .  A
C547        C554   1.507       .  S
C548        C549   1.402       .  A
C548        H553   1.078       .  S
C549        C550   1.403       .  A
C550        C551   1.506       .  S
C551        H555   1.111       .  S
C551        H556   1.110       .  S
C551        H557   1.110       .  S
C554        H558   1.105       .  S
C554        H559   1.110       .  S
C554        H560   1.109       .  S
C561        C562   1.410       .  A
C561        C566   1.405   1_556  A
C561        H568   1.084       .  S
C562        C563   1.392       .  A
C563        C564   1.388   1_556  A
C563        C570   1.499       .  S
C564        C565   1.411       .  A
C564        H569   1.077       .  S
C565        C566   1.411       .  A
C566        C567   1.505       .  S
C567        H571   1.111       .  S
C567        H572   1.107       .  S
C567        H573   1.110       .  S
C570        H574   1.111       .  S
C570        H575   1.110       .  S
C570        H576   1.110       .  S
C577        C578   1.398       .  A
C577        C582   1.403       .  A
C577        H584   1.085       .  S
C578        C579   1.416       .  A
C579        C580   1.405       .  A
C579        C586   1.507       .  S
C580        C581   1.401       .  A
C580        H585   1.083       .  S
C581        C582   1.420       .  A
C582        C583   1.508       .  S
C583        H587   1.110       .  S
C583        H588   1.110       .  S
C583        H589   1.110       .  S
C586        H590   1.110       .  S
C586        H591   1.109       .  S
C586        H592   1.111       .  S
C593        C594   1.393       .  A
C593        C598   1.412       .  A
C593        H600   1.085       .  S
C594        C595   1.433       .  A
C595        C596   1.416       .  A
C595        C602   1.495   1_455  S
C596        C597   1.393       .  A
C596        H601   1.084       .  S
C597        C598   1.443       .  A
C598        C599   1.513       .  S
C599        H603   1.111       .  S
C599        H604   1.109       .  S
C599        H605   1.110       .  S
C602        H606   1.110       .  S
C602        H607   1.095       .  S
C602        H608   1.106   1_655  S
C609        C610   1.399       .  A
C609        C614   1.398       .  A
C609        H616   1.084       .  S
C610        C611   1.417       .  A
C611        C612   1.395       .  A
C611        C618   1.508       .  S
C612        C613   1.397       .  A
C612        H617   1.085       .  S
C613        C614   1.419       .  A
C614        C615   1.509       .  S
C615        H619   1.111       .  S
C615        H620   1.110       .  S
C615        H621   1.109       .  S
C618        H622   1.110       .  S
C618        H623   1.111       .  S
C618        H624   1.110       .  S
C625        C626   1.392       .  A
C625        C630   1.394       .  A
C625        H632   1.084       .  S
C626        C627   1.425       .  A
C627        C628   1.376   1_556  A
C627        C634   1.488       .  S
C628        C629   1.376       .  A
C628        H633   1.083       .  S
C629        C630   1.414   1_554  A
C630        C631   1.498       .  S
C631        H635   1.111       .  S
C631        H636   1.106   1_556  S
C631        H637   1.107       .  S
C634        H638   1.076       .  S
C634        H639   1.111       .  S
C634        H640   1.110       .  S
C641        C642   1.399       .  A
C641        C646   1.403       .  A
C641        H648   1.085       .  S
C642        C643   1.413       .  A
C643        C644   1.396       .  A
C643        C650   1.502       .  S
C644        C645   1.396       .  A
C644        H649   1.083       .  S
C645        C646   1.417       .  A
C646        C647   1.506       .  S
C647        H651   1.110       .  S
C647        H652   1.108       .  S
C647        H653   1.111       .  S
C650        H654   1.108       .  S
C650        H655   1.110       .  S
C650        H656   1.111       .  S
C657        C658   1.416   1_556  A
C657        C662   1.435       .  A
C657        H664   1.082       .  S
C658        C659   1.436       .  A
C659        C660   1.417       .  A
C659        C666   1.514       .  S
C660        C661   1.401   1_554  A
C660        H665   1.084       .  S
C661        C662   1.423       .  A
C662        C663   1.503       .  S
C663        H667   1.111       .  S
C663        H668   1.110       .  S
C663        H669   1.110       .  S
C666        H670   1.110       .  S
C666        H671   1.109       .  S
C666        H672   1.110       .  S
C673        C674   1.409       .  A
C673        C678   1.406       .  A
C673        H680   1.084       .  S
C674        C675   1.417       .  A
C675        C676   1.418       .  A
C675        C682   1.505       .  S
C676        C677   1.410       .  A
C676        H681   1.084       .  S
C677        C678   1.415       .  A
C678        C679   1.509       .  S
C679        H683   1.111       .  S
C679        H684   1.110       .  S
C679        H685   1.110       .  S
C682        H686   1.110       .  S
C682        H687   1.110       .  S
C682        H688   1.111       .  S
C689        C690   1.405       .  A
C689        C694   1.409       .  A
C689        H696   1.084       .  S
C690        C691   1.410       .  A
C691        C692   1.406       .  A
C691        C698   1.506       .  S
C692        C693   1.408       .  A
C692        H697   1.084       .  S
C693        C694   1.415       .  A
C694        C695   1.507       .  S
C695        H699   1.111       .  S
C695        H700   1.109       .  S
C695        H701   1.110       .  S
C698        H702   1.110       .  S
C698        H703   1.110       .  S
C698        H704   1.111       .  S
C705        C706   1.412       .  A
C705        C710   1.436       .  A
C705        H712   1.083       .  S
C706        C707   1.428       .  A
C707        C708   1.428       .  A
C707        C714   1.504       .  S
C708        C709   1.411       .  A
C708        H713   1.083       .  S
C709        C710   1.435       .  A
C710        C711   1.505       .  S
C711        H715   1.111       .  S
C711        H716   1.110       .  S
C711        H717   1.110       .  S
C714        H718   1.110       .  S
C714        H719   1.102       .  S
C714        H720   1.111       .  S
C721        C722   1.410       .  A
C721        C726   1.409       .  A
C721        H728   1.084       .  S
C722        C723   1.420       .  A
C723        C724   1.403       .  A
C723        C730   1.510       .  S
C724        C725   1.404       .  A
C724        H729   1.084       .  S
C725        C726   1.412       .  A
C726        C727   1.506       .  S
C727        H731   1.111       .  S
C727        H732   1.109       .  S
C727        H733   1.110       .  S
C730        H734   1.110   1_545  S
C730        H735   1.111       .  S
C730        H736   1.111       .  S
C737        C738   1.411       .  A
C737        C742   1.401       .  A
C737        H744   1.083       .  S
C738        C739   1.400       .  A
C739        C740   1.397       .  A
C739        C746   1.507   1_655  S
C740        C741   1.415       .  A
C740        H745   1.085       .  S
C741        C742   1.405       .  A
C742        C743   1.505       .  S
C743        H747   1.111       .  S
C743        H748   1.109       .  S
C743        H749   1.110       .  S
C746        H750   1.109       .  S
C746        H751   1.110       .  S
C746        H752   1.111   1_455  S
C753        C754   1.401       .  A
C753        C758   1.409       .  A
C753        H760   1.085       .  S
C754        C755   1.414       .  A
C755        C756   1.403       .  A
C755        C762   1.503       .  S
C756        C757   1.402       .  A
C756        H761   1.084       .  S
C757        C758   1.423       .  A
C758        C759   1.508       .  S
C759        H763   1.111       .  S
C759        H764   1.110       .  S
C759        H765   1.111       .  S
C762        H766   1.109       .  S
C762        H767   1.107       .  S
C762        H768   1.111       .  S
C769        C770   1.401   1_455  A
C769        C774   1.395       .  A
C769        H776   1.065       .  S
C770        C771   1.404       .  A
C771        C772   1.398   1_655  A
C771        C778   1.505       .  S
C772        C773   1.418       .  A
C772        H777   1.084   1_455  S
C773        C774   1.409       .  A
C774        C775   1.508       .  S
C775        H779   1.111       .  S
C775        H780   1.106       .  S
C775        H781   1.108       .  S
C778        H782   1.110       .  S
C778        H783   1.111       .  S
C778        H784   1.108       .  S
C785        C786   1.396       .  A
C785        C790   1.398       .  A
C785        H792   1.085       .  S
C786        C787   1.431       .  A
C787        C788   1.405       .  A
C787        C794   1.509       .  S
C788        C789   1.393       .  A
C788        H793   1.084       .  S
C789        C790   1.423       .  A
C790        C791   1.507       .  S
C791        H795   1.110       .  S
C791        H796   1.109       .  S
C791        H797   1.111       .  S
C794        H798   1.111       .  S
C794        H799   1.108       .  S
C794        H800   1.111       .  S
C801        C802   1.415       .  A
C801        C806   1.419       .  A
C801        H808   1.083       .  S
C802        C803   1.427       .  A
C803        C804   1.427       .  A
C803        C810   1.506       .  S
C804        C805   1.410       .  A
C804        H809   1.084       .  S
C805        C806   1.414       .  A
C806        C807   1.502       .  S
C807        H811   1.110       .  S
C807        H812   1.110       .  S
C807        H813   1.110       .  S
C810        H814   1.109       .  S
C810        H815   1.110       .  S
C810        H816   1.111       .  S
C817        C818   1.404       .  A
C817        C822   1.403       .  A
C817        H824   1.084       .  S
C818        C819   1.420       .  A
C819        C820   1.409       .  A
C819        C826   1.508       .  S
C820        C821   1.405       .  A
C820        H825   1.084       .  S
C821        C822   1.418       .  A
C822        C823   1.510       .  S
C823        H827   1.111       .  S
C823        H828   1.109       .  S
C823        H829   1.111       .  S
C826        H830   1.110   1_655  S
C826        H831   1.111       .  S
C826        H832   1.111   1_655  S
C833        C834   1.426   1_455  A
C833        C838   1.411       .  A
C833        H840   1.079       .  S
C834        C835   1.406       .  A
C835        C836   1.423   1_655  A
C835        C842   1.503       .  S
C836        C837   1.429       .  A
C836        H841   1.082   1_455  S
C837        C838   1.404       .  A
C838        C839   1.507       .  S
C839        H843   1.111       .  S
C839        H844   1.110       .  S
C839        H845   1.110       .  S
C842        H846   1.110       .  S
C842        H847   1.109       .  S
C842        H848   1.111       .  S
C849        C850   1.414       .  A
C849        C854   1.397       .  A
C849        H856   1.084       .  S
C850        C851   1.411       .  A
C851        C852   1.402       .  A
C851        C858   1.506       .  S
C852        C853   1.407       .  A
C852        H857   1.084       .  S
C853        C854   1.401       .  A
C854        C855   1.507       .  S
C855        H859   1.111       .  S
C855        H860   1.109       .  S
C855        H861   1.110       .  S
C858        H862   1.110       .  S
C858        H863   1.111       .  S
C858        H864   1.111       .  S
C865        C866   1.407       .  A
C865        C870   1.404       .  A
C865        H872   1.085       .  S
C866        C867   1.412       .  A
C867        C868   1.418       .  A
C867        C874   1.502       .  S
C868        C869   1.413       .  A
C868        H873   1.084       .  S
C869        C870   1.416       .  A
C870        C871   1.509       .  S
C871        H875   1.111       .  S
C871        H876   1.110       .  S
C871        H877   1.110       .  S
C874        H878   1.103       .  S
C874        H879   1.110       .  S
C874        H880   1.111       .  S
C881        C882   1.426       .  A
C881        C886   1.423   1_565  A
C881        H888   1.081       .  S
C882        C883   1.407       .  A
C883        C884   1.410       .  A
C883        C890   1.509       .  S
C884        C885   1.426       .  A
C884        H889   1.080       .  S
C885        C886   1.406   1_565  A
C886        C887   1.502       .  S
C887        H891   1.110       .  S
C887        H892   1.111       .  S
C887        H893   1.110       .  S
C890        H894   1.109       .  S
C890        H895   1.110       .  S
C890        H896   1.111       .  S
C897        C898   1.408       .  A
C897        C902   1.398       .  A
C897        H904   1.084       .  S
C898        C899   1.428       .  A
C899        C900   1.399       .  A
C899        C906   1.511       .  S
C900        C901   1.396       .  A
C900        H905   1.085       .  S
C901        C902   1.399       .  A
C902        C903   1.501       .  S
C903        H907   1.110       .  S
C903        H908   1.110       .  S
C903        H909   1.103       .  S
C906        H910   1.108       .  S
C906        H911   1.109       .  S
C906        H912   1.111       .  S
C913        C914   1.401       .  A
C913        C918   1.410       .  A
C913        H920   1.084       .  S
C914        C915   1.427       .  A
C915        C916   1.399       .  A
C915        C922   1.513       .  S
C916        C917   1.399       .  A
C916        H921   1.084       .  S
C917        C918   1.425       .  A
C918        C919   1.509       .  S
C919        H923   1.111       .  S
C919        H924   1.110       .  S
C919        H925   1.108       .  S
C922        H926   1.110       .  S
C922        H927   1.111       .  S
C922        H928   1.111       .  S
C929        C930   1.411       .  A
C929        C934   1.409       .  A
C929        H936   1.083       .  S
C930        C931   1.423       .  A
C931        C932   1.434       .  A
C931        C938   1.503       .  S
C932        C933   1.416       .  A
C932        H937   1.083       .  S
C933        C934   1.421       .  A
C934        C935   1.509       .  S
C935        H939   1.111       .  S
C935        H940   1.108       .  S
C935        H941   1.103       .  S
C938        H942   1.110       .  S
C938        H943   1.110       .  S
C938        H944   1.110       .  S
C945        C946   1.406       .  A
C945        C950   1.408       .  A
C945        H952   1.084       .  S
C946        C947   1.423       .  A
C947        C948   1.422       .  A
C947        C954   1.505       .  S
C948        C949   1.407       .  A
C948        H953   1.083       .  S
C949        C950   1.415       .  A
C950        C951   1.505       .  S
C951        H955   1.111       .  S
C951        H956   1.109       .  S
C951        H957   1.106       .  S
C954        H958   1.110       .  S
C954        H959   1.109       .  S
C954        H960   1.111       .  S
C961        C962   1.402       .  A
C961        C966   1.420       .  A
C961        H968   1.084   1_565  S
C962        C963   1.427       .  A
C963        C964   1.402       .  A
C963        C970   1.512       .  S
C964        C965   1.396       .  A
C964        H969   1.083       .  S
C965        C966   1.427       .  A
C966        C967   1.505       .  S
C967        H971   1.109       .  S
C967        H972   1.110       .  S
C967        H973   1.108       .  S
C970        H974   1.111       .  S
C970        H975   1.109   1_565  S
C970        H976   1.111       .  S
C977        C978   1.397       .  A
C977        C982   1.403       .  A
C977        H984   1.085       .  S
C978        C979   1.423       .  A
C979        C980   1.402       .  A
C979        C986   1.508       .  S
C980        C981   1.398       .  A
C980        H985   1.084       .  S
C981        C982   1.423       .  A
C982        C983   1.507       .  S
C983        H987   1.111       .  S
C983        H988   1.109       .  S
C983        H989   1.111       .  S
C986        H990   1.110       .  S
C986        H991   1.107       .  S
C986        H992   1.111       .  S
C993        C994   1.403       .  A
C993        C998   1.396       .  A
C993       H1000   1.084       .  S
C994        C995   1.406       .  A
C995        C996   1.389       .  A
C995       C1002   1.512   1_565  S
C996        C997   1.409       .  A
C996       H1001   1.082       .  S
C997        C998   1.407       .  A
C998        C999   1.503       .  S
C999       H1003   1.106       .  S
C999       H1004   1.111       .  S
C999       H1005   1.108       .  S
C1002      H1006   1.106   1_545  S
C1002      H1007   1.110       .  S
C1002      H1008   1.106       .  S
C1009      C1010   1.403       .  A
C1009      C1014   1.393       .  A
C1009      H1016   1.084       .  S
C1010      C1011   1.414       .  A
C1011      C1012   1.403       .  A
C1011      C1018   1.508       .  S
C1012      C1013   1.402       .  A
C1012      H1017   1.084       .  S
C1013      C1014   1.409       .  A
C1014      C1015   1.507       .  S
C1015      H1019   1.111       .  S
C1015      H1020   1.107       .  S
C1015      H1021   1.110       .  S
C1018      H1022   1.110       .  S
C1018      H1023   1.109       .  S
C1018      H1024   1.111       .  S
C1025      C1026   1.408       .  A
C1025      C1030   1.418       .  A
C1025      H1032   1.084       .  S
C1026      C1027   1.424       .  A
C1027      C1028   1.405       .  A
C1027      C1034   1.511       .  S
C1028      C1029   1.402       .  A
C1028      H1033   1.085       .  S
C1029      C1030   1.418       .  A
C1030      C1031   1.505       .  S
C1031      H1035   1.111       .  S
C1031      H1036   1.110       .  S
C1031      H1037   1.111       .  S
C1034      H1038   1.108       .  S
C1034      H1039   1.106       .  S
C1034      H1040   1.111       .  S
C1041      C1042   1.423       .  A
C1041      C1046   1.411   1_455  A
C1041      H1048   1.078   1_455  S
C1042      C1043   1.406       .  A
C1043      C1044   1.423       .  A
C1043      C1050   1.503       .  S
C1044      C1045   1.428       .  A
C1044      H1049   1.081       .  S
C1045      C1046   1.406   1_455  A
C1046      C1047   1.507       .  S
C1047      H1051   1.111       .  S
C1047      H1052   1.103       .  S
C1047      H1053   1.109       .  S
C1050      H1054   1.110       .  S
C1050      H1055   1.110       .  S
C1050      H1056   1.111       .  S
C1057      C1058   1.393       .  A
C1057      C1062   1.399       .  A
C1057      H1064   1.084       .  S
C1058      C1059   1.427       .  A
C1059      C1060   1.400       .  A
C1059      C1066   1.507       .  S
C1060      C1061   1.395       .  A
C1060      H1065   1.084       .  S
C1061      C1062   1.419       .  A
C1062      C1063   1.495       .  S
C1063      H1067   1.110       .  S
C1063      H1068   1.109       .  S
C1063      H1069   1.106       .  S
C1066      H1070   1.109       .  S
C1066      H1071   1.111       .  S
C1066      H1072   1.111       .  S
C1073      C1074   1.422       .  A
C1073      C1078   1.445       .  A
C1073      H1080   1.083       .  S
C1074      C1075   1.435       .  A
C1075      C1076   1.416       .  A
C1075      C1082   1.509       .  S
C1076      C1077   1.408       .  A
C1076      H1081   1.083       .  S
C1077      C1078   1.426       .  A
C1078      C1079   1.501       .  S
C1079      H1083   1.110       .  S
C1079      H1084   1.110       .  S
C1079      H1085   1.110       .  S
C1082      H1086   1.110       .  S
C1082      H1087   1.103       .  S
C1082      H1088   1.111       .  S
C1089      C1090   1.391   1_655  A
C1089      C1094   1.393       .  A
C1089      H1096   1.085       .  S
C1090      C1091   1.427       .  A
C1091      C1092   1.393       .  A
C1091      C1098   1.496       .  S
C1092      C1093   1.382       .  A
C1092      H1097   1.083       .  S
C1093      C1094   1.419   1_455  A
C1094      C1095   1.498       .  S
C1095      H1099   1.109       .  S
C1095      H1100   1.109       .  S
C1095      H1101   1.093       .  S
C1098      H1102   1.102       .  S
C1098      H1103   1.102       .  S
C1098      H1104   1.111       .  S
C1105      C1106   1.402       .  A
C1105      C1110   1.407       .  A
C1105      H1112   1.085       .  S
C1106      C1107   1.406       .  A
C1107      C1108   1.398       .  A
C1107      C1114   1.495       .  S
C1108      C1109   1.406       .  A
C1108      H1113   1.084       .  S
C1109      C1110   1.419       .  A
C1110      C1111   1.506       .  S
C1111      H1115   1.111       .  S
C1111      H1116   1.105       .  S
C1111      H1117   1.110       .  S
C1114      H1118   1.108       .  S
C1114      H1119   1.108       .  S
C1114      H1120   1.111       .  S
