geometry optimzed in LAMMPS
_audit_creation_date              2020-12-01 
_audit_creation_method            'lammps2cif' 
_symmetry_space_group_name_H-M    'P1' 
_symmetry_Int_Tables_number       1 
_symmetry_cell_setting            triclinic 
loop_ 
_symmetry_equiv_pos_as_xyz 
  x,y,z 
_cell_length_a                    55.49162118 
_cell_length_b                    54.70907832884931 
_cell_length_c                    44.4485749951695 
_cell_angle_alpha                 90.11872361702655 
_cell_angle_beta                  90.65991634299724 
_cell_angle_gamma                 90.01481483751475 
loop_ 
_atom_site_label 
_atom_site_type_symbol 
_atom_site_fract_x 
_atom_site_fract_y 
_atom_site_fract_z 
_atom_site_charge 
O1          O  0.37610346  0.21461569  0.03244870    -0.82200
C2          C  0.38825731  0.27104846  0.43014634     0.97100
O3          O  0.36809160  0.26288986  0.43869291    -0.71300
O4          O  0.37149524  0.21562470  0.44480321    -0.74900
Al5        Al  0.36060054  0.24043627  0.47072875     1.49000
C6          C  0.37856048  0.19517817  0.45417954     0.92400
O7          O  0.43151523  0.22396853  0.98442462    -0.81100
O8          O  0.39975610  0.27633544  0.03242702    -0.74700
Al9        Al  0.40254979  0.22070627  0.00731342     1.90100
O10         O  0.43479790  0.26333537  0.99180887    -0.73800
O11         O  0.37282678  0.29421283  0.98839712    -0.73600
O12         O  0.40548128  0.27385613  0.44863984    -0.79300
O13         O  0.34596765  0.26462354  0.49472423    -0.77500
O14         O  0.38816192  0.24570901  0.98904331    -1.13600
O15         O  0.34694913  0.21917931  0.99919514    -0.72800
C16         C  0.35469330  0.21091549  0.02408460     0.97900
C17         C  0.44498439  0.24091119  0.48458314     0.94300
Al18       Al  0.40203079  0.27500625  0.98995366     1.55600
O19         O  0.39147528  0.19384100  0.47780871    -0.77400
C20         C  0.35269456  0.28643584  0.49698073     0.98500
C21         C  0.40773936  0.26033673  0.05046831     0.93300
O22         O  0.41537452  0.24003952  0.04050645    -0.82800
O23         O  0.36193487  0.22517648  0.28835202    -0.82200
C24         C  0.38896592  0.26603209  0.17755724     0.97100
O25         O  0.36911902  0.25605333  0.18355265    -0.71300
O26         O  0.36647888  0.21099981  0.20325574    -0.74900
Al27       Al  0.35565981  0.24174867  0.21844913     1.49000
C28         C  0.37084455  0.19247000  0.21924525     0.92400
O29         O  0.42194738  0.21983478  0.24837849    -0.81100
O30         O  0.39377127  0.28062417  0.28269413    -0.74700
Al31       Al  0.39124651  0.22324237  0.26725333     1.90100
O32         O  0.42899776  0.25938595  0.24638365    -0.73800
O33         O  0.37019182  0.29629554  0.23485740    -0.73600
O34         O  0.40344755  0.27245743  0.19825622    -0.79300
O35         O  0.34027327  0.27088746  0.23002381    -0.77500
O36         O  0.38159057  0.24662518  0.24166521    -1.13600
O37         O  0.33737313  0.22695616  0.24930209    -0.72800
C38         C  0.34094564  0.22399961  0.27719158     0.97900
C39         C  0.43671572  0.23745573  0.24669963     0.94300
Al40       Al  0.39781677  0.27482160  0.24050930     1.55600
O41         O  0.37949321  0.19531971  0.24525013    -0.77400
C42         C  0.34776379  0.29232149  0.23393655     0.98500
C43         C  0.40025517  0.26614192  0.30325586     0.93300
O44         O  0.40481755  0.24423661  0.29709156    -0.82800
O45         O  0.57881644  0.23709098  0.04416052    -0.82200
C46         C  0.60295297  0.27551093  0.43581878     0.97100
O47         O  0.58642594  0.27800018  0.45492949    -0.71300
O48         O  0.55811952  0.26133622  0.49764482    -0.74900
Al49       Al  0.59064835  0.27458516  0.49791625     1.49000
C50         C  0.54946768  0.24080862  0.48933648     0.92400
O51         O  0.60467840  0.19649516  0.47775502    -0.81100
O52         O  0.64622542  0.22143561  0.99779671    -0.74700
Al53       Al  0.59269503  0.22103221  0.01008798     1.90100
O54         O  0.61607529  0.22329017  0.44528835    -0.73800
O55         O  0.64834084  0.26518165  0.49762810    -0.73600
O56         O  0.62376363  0.26947685  0.44463630    -0.79300
O57         O  0.62080667  0.29637828  0.99963066    -0.77500
O58         O  0.60492957  0.24609422  0.49346161    -1.13600
O59         O  0.59264618  0.27464285  0.04206165    -0.72800
C60         C  0.58367425  0.25721529  0.05709481     0.97900
C61         C  0.61428028  0.20136754  0.45272269     0.94300
Al62       Al  0.63146505  0.24416436  0.47241628     1.55600
O63         O  0.56319997  0.22405758  0.98771957    -0.77400
C64         C  0.64302783  0.28719825  0.50102622     0.98500
C65         C  0.64135497  0.21401191  0.02404794     0.93300
O66         O  0.62038853  0.21628702  0.03426487    -0.82800
O67         O  0.61072030  0.19900303  0.20540615    -0.82200
C68         C  0.60019784  0.25968108  0.30812600     0.97100
O69         O  0.61915259  0.24924787  0.29932229    -0.71300
O70         O  0.61539067  0.20191518  0.29121849    -0.74900
Al71       Al  0.62652219  0.22786085  0.26676969     1.49000
C72         C  0.60703700  0.18191407  0.28159397     0.92400
O73         O  0.55382967  0.21032137  0.25046239    -0.81100
O74         O  0.58587299  0.26289818  0.20445636    -0.74700
Al75       Al  0.58380773  0.20648447  0.22928656     1.90100
O76         O  0.55204763  0.24993917  0.24550882    -0.73800
O77         O  0.61321285  0.28015230  0.24890420    -0.73600
O78         O  0.58224857  0.26212831  0.29044111    -0.79300
O79         O  0.64214219  0.25345716  0.24493815    -0.77500
O80         O  0.59830553  0.23166269  0.24791011    -1.13600
O81         O  0.63918802  0.20516429  0.23874121    -0.72800
C82         C  0.63172417  0.19489502  0.21494361     0.97900
C83         C  0.54163003  0.22988129  0.25002542     0.94300
Al84       Al  0.58447851  0.26114995  0.24734609     1.55600
O85         O  0.59406627  0.18149000  0.25791675    -0.77400
C86         C  0.63507829  0.27539808  0.24489665     0.98500
C87         C  0.57750606  0.24703195  0.18635907     0.93300
O88         O  0.57241852  0.22580162  0.19577931    -0.82800
O89         O  0.22286780  0.42441552  0.04106699    -0.82200
C90         C  0.26976149  0.39959631  0.43500625     0.97100
O91         O  0.27035527  0.41779906  0.45274994    -0.71300
O92         O  0.25471313  0.44671648  0.49661461    -0.74900
Al93       Al  0.26757489  0.41450783  0.49564699     1.49000
C94         C  0.23480213  0.45592318  0.48869884     0.92400
O95         O  0.19208829  0.39987610  0.47072197    -0.81100
O96         O  0.21042547  0.35663398  0.99256274    -0.74700
Al97       Al  0.20844149  0.41124300  0.00448159     1.90100
O98         O  0.21898776  0.38232924  0.44260722    -0.73800
O99         O  0.26090793  0.35652731  0.50108763    -0.73600
O100        O  0.26504334  0.37854054  0.44520140    -0.79300
O101        O  0.28420974  0.38765623  0.99715371    -0.77500
O102        O  0.23972639  0.39913492  0.49103644    -1.13600
O103        O  0.26107209  0.41350455  0.03839250    -0.72800
C104        C  0.24301589  0.41969097  0.05382408     0.97900
C105        C  0.19744458  0.38763671  0.44721835     0.94300
Al106      Al  0.23947014  0.37065923  0.47254758     1.55600
O107        O  0.21127248  0.44138936  0.98358562    -0.77400
C108        C  0.28257657  0.36359786  0.50271600     0.98500
C109        C  0.19840308  0.36282790  0.01528839     0.93300
O110        O  0.20229401  0.38321580  0.02739807    -0.82800
O111        O  0.18804311  0.37554287  0.21384828    -0.82200
C112        C  0.24846478  0.40034817  0.30948834     0.97100
O113        O  0.22963713  0.38760836  0.30578424    -0.71300
O114        O  0.18817500  0.37355234  0.28015111    -0.74900
Al115      Al  0.22136460  0.37019755  0.27025233     1.49000
C116        C  0.17196916  0.38931851  0.27626685     0.92400
O117        O  0.20334203  0.44237922  0.23415966    -0.81100
O118        O  0.25064807  0.41828318  0.20237937    -0.74700
Al119      Al  0.19764800  0.40791580  0.22661933     1.90100
O120        O  0.23971584  0.44357837  0.25372481    -0.73800
O121        O  0.26996024  0.38350261  0.23455995    -0.73600
O122        O  0.25978716  0.40895114  0.28726100    -0.79300
O123        O  0.25379948  0.35840667  0.26638187    -0.77500
O124        O  0.22372133  0.39705144  0.24722721    -1.13600
O125        O  0.21324046  0.35038165  0.23686159    -0.72800
C126        C  0.19746175  0.35452959  0.21689859     0.97900
C127        C  0.22108654  0.45449410  0.24446809     0.94300
Al128      Al  0.25231077  0.41221407  0.24482391     1.55600
O129        O  0.17597683  0.40771003  0.26010024    -0.77400
C130        C  0.27037241  0.36352622  0.24841313     0.98500
C131        C  0.23434848  0.41606115  0.18259687     0.93300
O132        O  0.21340123  0.40993633  0.18959445    -0.82800
O133        O  0.22808995  0.59386183  0.44394475    -0.82200
C134        C  0.26365800  0.61664527  0.05287026     0.97100
O135        O  0.26410284  0.59837318  0.03527830    -0.71300
O136        O  0.24904379  0.56887633  0.99087539    -0.74900
Al137      Al  0.26595668  0.60637327  0.49199112     1.49000
C138        C  0.23718507  0.56188221  0.49469085     0.92400
O139        O  0.18609832  0.61611396  0.01006767    -0.81100
O140        O  0.20665924  0.65872422  0.49146026    -0.74700
Al141      Al  0.21115231  0.60381105  0.47975601     1.90100
O142        O  0.21283889  0.63092390  0.04142516    -0.73800
O143        O  0.25500262  0.65993296  0.98722808    -0.73600
O144        O  0.25845468  0.63745588  0.04248050    -0.79300
O145        O  0.28321258  0.63687499  0.49341876    -0.77500
O146        O  0.23680880  0.61910191  0.49507436    -1.13600
O147        O  0.26476696  0.60925321  0.44949196    -0.72800
C148        C  0.24812743  0.60055330  0.43286319     0.97900
C149        C  0.19125799  0.62629249  0.03516736     0.94300
Al150      Al  0.23333482  0.64465104  0.01364425     1.55600
O151        O  0.21812790  0.57373131  0.49986696    -0.77400
C152        C  0.27676902  0.65886547  0.48941557     0.98500
C153        C  0.19527900  0.65139118  0.46836670     0.93300
O154        O  0.20063442  0.63103634  0.45709046    -0.82800
O155        O  0.20011285  0.63477149  0.28667421    -0.82200
C156        C  0.25272267  0.61610517  0.18108267     0.97100
O157        O  0.24326586  0.63623740  0.18854158    -0.71300
O158        O  0.19662095  0.63620985  0.19985444    -0.74900
Al159      Al  0.22450780  0.64669711  0.22211093     1.49000
C160        C  0.17720217  0.62886701  0.21121637     0.92400
O161        O  0.20295553  0.57586790  0.24139659    -0.81100
O162        O  0.25834442  0.60549515  0.28588251    -0.74700
Al163      Al  0.20276079  0.60646437  0.26272973     1.90100
O164        O  0.24196769  0.57086613  0.24515831    -0.73800
O165        O  0.27669738  0.63160842  0.24158731    -0.73600
O166        O  0.25620350  0.59939777  0.20027992    -0.79300
O167        O  0.25141135  0.66191719  0.24143048    -0.77500
O168        O  0.22763693  0.61875810  0.24231527    -1.13600
O169        O  0.20537525  0.66247172  0.25183820    -0.72800
C170        C  0.19896337  0.65663440  0.27806898     0.97900
C171        C  0.22104487  0.56177842  0.24194667     0.94300
Al172      Al  0.25586431  0.60310894  0.24306546     1.55600
O173        O  0.17758762  0.61803438  0.23623679    -0.77400
C174        C  0.27267126  0.65418899  0.24453640     0.98500
C175        C  0.24274417  0.59767264  0.30396912     0.93300
O176        O  0.22162448  0.59307234  0.29486235    -0.82800
O177        O  0.75937243  0.59069744  0.05214637    -0.82200
C178        C  0.71956892  0.61290599  0.44455682     0.97100
O179        O  0.71856820  0.59513482  0.46266357    -0.71300
O180        O  0.73432541  0.56676871  0.50660017    -0.74900
Al181      Al  0.72142087  0.59882186  0.50533249     1.49000
C182        C  0.75398959  0.55750167  0.49878793     0.92400
O183        O  0.79661105  0.61292008  0.48233889    -0.81100
O184        O  0.77550740  0.65755927  0.00420203    -0.74700
Al185      Al  0.77474161  0.60296659  0.01658982     1.90100
O186        O  0.76961497  0.63036830  0.45368325    -0.73800
O187        O  0.72802615  0.65697064  0.51034777    -0.73600
O188        O  0.72417856  0.63418342  0.45457723    -0.79300
O189        O  0.70029148  0.62937441  0.00457381    -0.77500
O190        O  0.74926394  0.61422280  0.50146854    -1.13600
O191        O  0.72164952  0.60305364  0.04826299    -0.72800
C192        C  0.73917970  0.59514505  0.06411450     0.97900
C193        C  0.79103216  0.62481496  0.45870039     0.94300
Al194      Al  0.74956932  0.64248225  0.48281873     1.55600
O195        O  0.77089409  0.57301713  0.99579542    -0.77400
C196        C  0.70636789  0.64993339  0.50990408     0.98500
C197        C  0.78689974  0.65093934  0.02768493     0.93300
O198        O  0.78167003  0.63089217  0.03963818    -0.82800
O199        O  0.78647131  0.62699861  0.21043748    -0.82200
C200        C  0.73276079  0.61302727  0.31669925     0.97100
O201        O  0.74393792  0.63198153  0.30850885    -0.71300
O202        O  0.78998681  0.63105675  0.29533245    -0.74900
Al203      Al  0.76182500  0.64155920  0.27412779     1.49000
C204        C  0.80861682  0.62109987  0.28499933     0.92400
O205        O  0.77836075  0.56771622  0.25507617    -0.81100
O206        O  0.72462056  0.60201045  0.21240524    -0.74700
Al207      Al  0.78103775  0.59894471  0.23448835     1.90100
O208        O  0.73917789  0.56630151  0.25178754    -0.73800
O209        O  0.70857556  0.62836078  0.25900953    -0.73600
O210        O  0.72851673  0.59573683  0.29828517    -0.79300
O211        O  0.73464061  0.65758592  0.25626188    -0.77500
O212        O  0.75712868  0.61326191  0.25498179    -1.13600
O213        O  0.78041076  0.65621003  0.24311385    -0.72800
C214        C  0.78759516  0.64924189  0.21763075     0.97900
C215        C  0.75902849  0.55525973  0.25438815     0.94300
Al216      Al  0.72790972  0.59926731  0.25532707     1.55600
O217        O  0.80726069  0.60840776  0.26125383    -0.77400
C218        C  0.71294780  0.65081987  0.25684494     0.98500
C219        C  0.73974988  0.59381505  0.19379454     0.93300
O220        O  0.76067622  0.58776522  0.20259781    -0.82800
O221        O  0.76687749  0.42007706  0.44234429    -0.82200
C222        C  0.74017042  0.40004091  0.05932690     0.97100
O223        O  0.73710883  0.41680729  0.03993867    -0.71300
O224        O  0.74822231  0.44385941  0.99231505    -0.74900
Al225      Al  0.73530741  0.40962648  0.49642267     1.49000
C226        C  0.76782520  0.45457440  0.99809903     0.92400
O227        O  0.81629510  0.40358022  0.00712137    -0.81100
O228        O  0.79161624  0.35452749  0.48863508    -0.74700
Al229      Al  0.78777475  0.40977050  0.47523947     1.90100
O230        O  0.79820352  0.38294910  0.04231925    -0.73800
O231        O  0.74473009  0.35284374  0.00083954    -0.73600
O232        O  0.75118118  0.38042228  0.05261455    -0.79300
O233        O  0.71722533  0.38089671  0.50232903    -0.77500
O234        O  0.76439115  0.39596015  0.49651852    -1.13600
O235        O  0.73162045  0.40465062  0.45393786    -0.72800
C236        C  0.74605487  0.41267795  0.43443585     0.97900
C237        C  0.81720606  0.39187539  0.03152816     0.94300
Al238      Al  0.77140418  0.37036687  0.01974922     1.55600
O239        O  0.78501788  0.44030646  0.49566225    -0.77400
C240        C  0.72141157  0.35852410  0.49989968     0.98500
C241        C  0.80022145  0.36145405  0.46367483     0.93300
O242        O  0.79342118  0.38138764  0.45252003    -0.82800
O243        O  0.77867994  0.37416066  0.28202021    -0.82200
C244        C  0.71843884  0.39393919  0.18400129     0.97100
O245        O  0.72372379  0.37250809  0.19250891    -0.71300
O246        O  0.76972067  0.37434294  0.19512957    -0.74900
Al247      Al  0.74729998  0.36275202  0.22211509     1.49000
C248        C  0.79122011  0.37746706  0.20261045     0.92400
O249        O  0.77202221  0.43323812  0.23748853    -0.81100
O250        O  0.72067065  0.40361369  0.28887077    -0.74700
Al251      Al  0.77415538  0.40227325  0.25845014     1.90100
O252        O  0.73405937  0.43869374  0.24817874    -0.73800
O253        O  0.69836065  0.37768812  0.24447734    -0.73600
O254        O  0.71743844  0.41114697  0.20307476    -0.79300
O255        O  0.72481499  0.34832170  0.24721057    -0.77500
O256        O  0.74708812  0.39060377  0.24222775    -1.13600
O257        O  0.77102020  0.34695769  0.24706460    -0.72800
C258        C  0.77955211  0.35251922  0.27264353     0.97900
C259        C  0.75460649  0.44771168  0.24250835     0.94300
Al260      Al  0.71957798  0.40662975  0.24584546     1.55600
O261        O  0.79594064  0.38869146  0.22720185    -0.77400
C262        C  0.70340339  0.35524936  0.24857337     0.98500
C263        C  0.73806032  0.41147568  0.30504004     0.93300
O264        O  0.75845096  0.41590505  0.29348471    -0.82800
O265        O  0.36772802  0.80401689  0.46752007    -0.82200
C266        C  0.38863863  0.75210041  0.07470335     0.97100
O267        O  0.36773513  0.75969022  0.06778047    -0.71300
O268        O  0.36729667  0.80571158  0.05121504    -0.74900
Al269      Al  0.35585707  0.77676808  0.03264151     1.49000
C270        C  0.37416427  0.82471074  0.03779609     0.92400
O271        O  0.42739422  0.79931892  0.51183108    -0.81100
O272        O  0.39355622  0.74365061  0.47198267    -0.74700
Al273      Al  0.39662224  0.80078665  0.49077915     1.90100
O274        O  0.42987711  0.75958384  0.50840014    -0.73800
O275        O  0.37040236  0.72850710  0.51906504    -0.73600
O276        O  0.40373187  0.74692754  0.05475800    -0.79300
O277        O  0.34032831  0.74910404  0.01607718    -0.77500
O278        O  0.38410182  0.77700726  0.51305482    -1.13600
O279        O  0.34159703  0.80037793  0.50387021    -0.72800
C280        C  0.34641310  0.80586537  0.47712684     0.97900
C281        C  0.43989092  0.77984092  0.51280961     0.94300
Al282      Al  0.39832544  0.74787522  0.51372618     1.55600
O283        O  0.38407128  0.82305017  0.01246521    -0.77400
C284        C  0.34870198  0.73315836  0.51362622     0.98500
C285        C  0.40142452  0.75816264  0.45239958     0.93300
O286        O  0.40789045  0.77959189  0.45946736    -0.82800
O287        O  0.36855297  0.79848336  0.21862159    -0.82200
C288        C  0.38850023  0.74932608  0.32641919     0.97100
O289        O  0.36909385  0.76010628  0.31966678    -0.71300
O290        O  0.37030324  0.80643603  0.30528018    -0.74900
Al291      Al  0.35804293  0.77785552  0.28571373     1.49000
C292        C  0.37582115  0.82550174  0.29113611     0.92400
O293        O  0.42746955  0.79574801  0.26346143    -0.81100
O294        O  0.39447834  0.73982660  0.22178962    -0.74700
Al295      Al  0.39698163  0.79636184  0.24214824     1.90100
O296        O  0.43121425  0.75577381  0.26027760    -0.73800
O297        O  0.36931343  0.72347638  0.26779503    -0.73600
O298        O  0.40365560  0.74358603  0.30661321    -0.79300
O299        O  0.34109800  0.75088291  0.26961293    -0.77500
O300        O  0.38452690  0.77247352  0.26444868    -1.13600
O301        O  0.34223419  0.79628803  0.25507996    -0.72800
C302        C  0.34723602  0.80046712  0.22789100     0.97900
C303        C  0.44077726  0.77685188  0.26258862     0.94300
Al304      Al  0.39856039  0.74308280  0.26432262     1.55600
O305        O  0.38616959  0.82365374  0.26611940    -0.77400
C306        C  0.34721067  0.72905634  0.26593531     0.98500
C307        C  0.40234410  0.75480749  0.20274129     0.93300
O308        O  0.40944000  0.77561747  0.21142640    -0.82800
O309        O  0.57358276  0.77957344  0.45519536    -0.82200
C310        C  0.59557605  0.74111383  0.06267027     0.97100
O311        O  0.57818724  0.74077611  0.04397236    -0.71300
O312        O  0.55088026  0.75765814  0.99920165    -0.74900
Al313      Al  0.58244684  0.74009806  0.50204079     1.49000
C314        C  0.54376566  0.77638181  0.50896249     0.92400
O315        O  0.59998052  0.82047634  0.02040688    -0.81100
O316        O  0.64038652  0.79391665  0.50412192    -0.74700
Al317      Al  0.58749053  0.79536248  0.49020433     1.90100
O318        O  0.60996121  0.79241456  0.05222657    -0.73800
O319        O  0.64069374  0.74853547  0.00090055    -0.73600
O320        O  0.61647131  0.74627210  0.05384231    -0.79300
O321        O  0.61091477  0.71913914  0.50255736    -0.77500
O322        O  0.59854812  0.76769281  0.50597277    -1.13600
O323        O  0.58489192  0.74121038  0.45938473    -0.72800
C324        C  0.57777190  0.75892211  0.44326171     0.97900
C325        C  0.60963031  0.81451343  0.04548394     0.94300
Al326      Al  0.62492485  0.77118133  0.02571927     1.55600
O327        O  0.55841847  0.79382934  0.51178702    -0.77400
C328        C  0.63325873  0.72397432  0.50048806     0.98500
C329        C  0.63517840  0.80394776  0.47926802     0.93300
O330        O  0.61516717  0.79951995  0.46687012    -0.82800
O331        O  0.61695077  0.80121720  0.29699058    -0.82200
C332        C  0.60052222  0.74678560  0.19097804     0.97100
O333        O  0.62006406  0.75698378  0.19876228    -0.71300
O334        O  0.61870658  0.80381259  0.20997320    -0.74900
Al335      Al  0.62967927  0.77652572  0.23251176     1.49000
C336        C  0.61236343  0.82379641  0.22136770     0.92400
O337        O  0.55912051  0.79639994  0.25028918    -0.81100
O338        O  0.58990128  0.74154427  0.29583733    -0.74700
Al339      Al  0.58935688  0.79784032  0.27215113     1.90100
O340        O  0.55516601  0.75654529  0.25452816    -0.73800
O341        O  0.61680687  0.72328183  0.25095608    -0.73600
O342        O  0.58407945  0.74288454  0.20987400    -0.79300
O343        O  0.64529843  0.75029622  0.25185435    -0.77500
O344        O  0.60218119  0.77268588  0.25213581    -1.13600
O345        O  0.64462191  0.79652787  0.26280127    -0.72800
C346        C  0.63866017  0.80232366  0.28927314     0.97900
C347        C  0.54575582  0.77751803  0.25113603     0.94300
Al348      Al  0.58768317  0.74351131  0.25268038     1.55600
O349        O  0.60108344  0.82379797  0.24597267    -0.77400
C350        C  0.63902512  0.72838188  0.25344787     0.98500
C351        C  0.58141651  0.75749848  0.31346666     0.93300
O352        O  0.57627287  0.77854900  0.30362808    -0.82800
O353        O  0.91655465  0.27980414  0.16174876    -0.82200
C354        C  0.89545658  0.25041916  0.04619988     0.97100
O355        O  0.91183731  0.24696673  0.06589097    -0.71300
O356        O  0.93805672  0.25679247  0.11507852    -0.74900
Al357      Al  0.90579615  0.24672199  0.10837697     1.49000
C358        C  0.94918885  0.27602896  0.10881769     0.92400
O359        O  0.89868501  0.32677834  0.10083893    -0.81100
O360        O  0.85152423  0.30310370  0.11580690    -0.74700
Al361      Al  0.90708705  0.30054248  0.12822189     1.90100
O362        O  0.87859149  0.30824125  0.06491476    -0.73800
O363        O  0.84880386  0.25491495  0.10455680    -0.73600
O364        O  0.87591874  0.26115703  0.05302014    -0.79300
O365        O  0.87744680  0.22821373  0.10168816    -0.77500
O366        O  0.89276159  0.27646963  0.10748868    -1.13600
O367        O  0.90013423  0.24430912  0.15061097    -0.72800
C368        C  0.90783190  0.25942283  0.17008018     0.97900
C369        C  0.88658773  0.32762246  0.07658147     0.94300
Al370      Al  0.86593755  0.28141619  0.08640586     1.55600
O371        O  0.93758817  0.29601597  0.10774175    -0.77400
C372        C  0.85545040  0.23283588  0.10335319     0.98500
C373        C  0.85817655  0.31201909  0.14101580     0.93300
O374        O  0.87924184  0.30807883  0.15073020    -0.82800
O375        O  0.86476840  0.29065976  0.32807357    -0.82200
C376        C  0.88862750  0.22736912  0.42048791     0.97100
O377        O  0.86700514  0.23147282  0.41285738    -0.71300
O378        O  0.86891298  0.27830787  0.41428773    -0.74900
Al379      Al  0.85618201  0.25680088  0.38599783     1.49000
C380        C  0.87189614  0.30033521  0.40809310     0.92400
O381        O  0.92407236  0.28291076  0.36992128    -0.81100
O382        O  0.89403073  0.23277849  0.31487006    -0.74700
Al383      Al  0.89334433  0.28557463  0.35002738     1.90100
O384        O  0.93007319  0.24517898  0.35553652    -0.73800
O385        O  0.86976891  0.20811515  0.35950452    -0.73600
O386        O  0.90478085  0.22673902  0.40056873    -0.79300
O387        O  0.84104792  0.23523493  0.35947793    -0.77500
O388        O  0.88267819  0.25752720  0.36447255    -1.13600
O389        O  0.83954528  0.28191914  0.36404934    -0.72800
C390        C  0.84384013  0.29090618  0.33852688     0.97900
C391        C  0.93855022  0.26583275  0.36357321     0.94300
Al392      Al  0.89849489  0.23000215  0.35800766     1.55600
O393        O  0.88148534  0.30599496  0.38317880    -0.77400
C394        C  0.84737433  0.21330827  0.35809547     0.98500
C395        C  0.90149510  0.25124416  0.30019768     0.93300
O396        O  0.90560808  0.27135536  0.31357397    -0.82800
O397        O  0.12794675  0.29036503  0.14439373    -0.82200
C398        C  0.10227710  0.23458317  0.04516691     0.97100
O399        O  0.12407874  0.23713167  0.05337630    -0.71300
O400        O  0.12243806  0.28342259  0.05714754    -0.74900
Al401      Al  0.13567833  0.26026186  0.08282898     1.49000
C402        C  0.12182660  0.30519279  0.06532405     0.92400
O403        O  0.06907189  0.28762417  0.10080536    -0.81100
O404        O  0.09716190  0.23305445  0.14973184    -0.74700
Al405      Al  0.09956576  0.28788082  0.12156622     1.90100
O406        O  0.06183478  0.24925381  0.11116615    -0.73800
O407        O  0.11962266  0.21101229  0.10518169    -0.73600
O408        O  0.08624729  0.23282125  0.06499858    -0.79300
O409        O  0.15016164  0.23637224  0.10651623    -0.77500
O410        O  0.10933349  0.26043829  0.10432981    -1.13600
O411        O  0.15354905  0.28378175  0.10816788    -0.72800
C412        C  0.14907511  0.29140027  0.13454286     0.97900
C413        C  0.05416562  0.27034802  0.10420096     0.94300
Al414      Al  0.09237900  0.23332476  0.10749578     1.55600
O415        O  0.11282668  0.31016334  0.09079674    -0.77400
C416        C  0.14183466  0.21520134  0.10984452     0.98500
C417        C  0.09194959  0.25059338  0.16705131     0.93300
O418        O  0.08648082  0.27148822  0.15641563    -0.82800
O419        O  0.11368383  0.31077456  0.40000473    -0.82200
C420        C  0.09996989  0.25320455  0.29597834     0.97100
O421        O  0.12037724  0.26157075  0.30428300    -0.71300
O422        O  0.11420414  0.30816830  0.31414983    -0.74900
Al423      Al  0.12836250  0.28328617  0.33750187     1.49000
C424        C  0.10460880  0.32734048  0.32408071     0.92400
O425        O  0.05508332  0.29479404  0.35816552    -0.81100
O426        O  0.09515228  0.24431463  0.39837130    -0.74700
Al427      Al  0.08611739  0.30094427  0.37750537     1.90100
O428        O  0.05694863  0.25547818  0.36316350    -0.73800
O429        O  0.11953140  0.23015009  0.35127537    -0.73600
O430        O  0.08376252  0.24880459  0.31498399    -0.79300
O431        O  0.14635291  0.25846585  0.35888198    -0.77500
O432        O  0.10144274  0.27749246  0.35732608    -1.13600
O433        O  0.14098984  0.30723045  0.36548238    -0.72800
C434        C  0.13378690  0.31690352  0.38971061     0.97900
C435        C  0.04441808  0.27435877  0.35983628     0.94300
Al436      Al  0.08973835  0.24726035  0.35693771     1.55600
O437        O  0.09264117  0.32685127  0.34832647    -0.77400
C438        C  0.14089710  0.23600507  0.35774204     0.98500
C439        C  0.08790157  0.25893587  0.41830736     0.93300
O440        O  0.07890703  0.27965395  0.41141054    -0.82800
O441        O  0.28189386  0.87447685  0.16254644    -0.82200
C442        C  0.23519889  0.89759368  0.05353622     0.97100
O443        O  0.24539142  0.87761609  0.05980881    -0.71300
O444        O  0.29073821  0.87758440  0.07703837    -0.74900
Al445      Al  0.26168728  0.86544746  0.09447759     1.49000
C446        C  0.30923213  0.88481239  0.09123727     0.92400
O447        O  0.28031922  0.93512038  0.12153780    -0.81100
O448        O  0.22350757  0.90350937  0.15794600    -0.74700
Al449      Al  0.28008194  0.90392330  0.14072595     1.90100
O450        O  0.24103673  0.93947391  0.12092861    -0.73800
O451        O  0.20814354  0.87820193  0.11100032    -0.73600
O452        O  0.22927002  0.91248126  0.07383299    -0.79300
O453        O  0.23395658  0.84857204  0.10837669    -0.77500
O454        O  0.25661400  0.89211672  0.11677240    -1.13600
O455        O  0.27884815  0.84836091  0.12504321    -0.72800
C456        C  0.28356843  0.85304928  0.15228580     0.97900
C457        C  0.26191581  0.94875720  0.12012161     0.94300
Al458      Al  0.22796635  0.90710274  0.11585879     1.55600
O459        O  0.30701376  0.89439853  0.11676815    -0.77400
C460        C  0.21250304  0.85558344  0.11139318     0.98500
C461        C  0.23794700  0.91128440  0.17784179     0.93300
O462        O  0.25952292  0.91583000  0.17132083    -0.82800
O463        O  0.28785537  0.88330858  0.40631875    -0.82200
C464        C  0.23432013  0.90861488  0.30390964     0.97100
O465        O  0.24286891  0.88752687  0.30924571    -0.71300
O466        O  0.28910327  0.88462849  0.32214251    -0.74900
Al467      Al  0.26097572  0.87412819  0.34218025     1.49000
C468        C  0.30833415  0.89303209  0.33340390     0.92400
O469        O  0.28001848  0.94593964  0.36833710    -0.81100
O470        O  0.22666667  0.90880182  0.40733127    -0.74700
Al471      Al  0.28258175  0.91319298  0.38590213     1.90100
O472        O  0.24134409  0.94789387  0.37460399    -0.73800
O473        O  0.20888210  0.88877347  0.35771471    -0.73600
O474        O  0.23050836  0.92394007  0.32464533    -0.79300
O475        O  0.23377923  0.85829964  0.35884525    -0.77500
O476        O  0.25797912  0.90104805  0.36437898    -1.13600
O477        O  0.27947357  0.85635899  0.37106726    -0.72800
C478        C  0.28790594  0.86156843  0.39671582     0.97900
C479        C  0.26099752  0.95873788  0.37080199     0.94300
Al480      Al  0.22941838  0.91606474  0.36593501     1.55600
O481        O  0.30780791  0.90490216  0.35785058    -0.77400
C482        C  0.21257970  0.86618781  0.35900804     0.98500
C483        C  0.24208342  0.91511567  0.42702880     0.93300
O484        O  0.26293865  0.92218282  0.41956898    -0.82800
O485        O  0.29249882  0.12679735  0.08820167    -0.82200
C486        C  0.23937611  0.10920846  0.19259835     0.97100
O487        O  0.24789814  0.12993460  0.18527275    -0.71300
O488        O  0.29426117  0.13100524  0.17338977    -0.74900
Al489      Al  0.26668823  0.14064494  0.15113887     1.49000
C490        C  0.31357709  0.12238527  0.16328844     0.92400
O491        O  0.28578752  0.06809106  0.13242584    -0.81100
O492        O  0.23179139  0.10189659  0.08964048    -0.74700
Al493      Al  0.28775047  0.09896467  0.11178899     1.90100
O494        O  0.24691264  0.06503535  0.12628336    -0.73800
O495        O  0.21481686  0.12508708  0.13669665    -0.73600
O496        O  0.23617708  0.09238514  0.17339539    -0.79300
O497        O  0.23996764  0.15515173  0.13162836    -0.77500
O498        O  0.26340806  0.11231945  0.13185509    -1.13600
O499        O  0.28602769  0.15623564  0.12068672    -0.72800
C500        C  0.29371919  0.14895660  0.09550013     0.97900
C501        C  0.26717809  0.05491237  0.12957956     0.94300
Al502      Al  0.23488007  0.09725382  0.13155461     1.55600
O503        O  0.31305647  0.10930581  0.13975685    -0.77400
C504        C  0.21875819  0.14739897  0.13263323     0.98500
C505        C  0.24699027  0.09503244  0.07041892     0.93300
O506        O  0.26771680  0.08759098  0.07859571    -0.82800
O507        O  0.28021096  0.14175002  0.33634190    -0.82200
C508        C  0.23491117  0.11754599  0.44448207     0.97100
O509        O  0.24393496  0.13809918  0.43845099    -0.71300
O510        O  0.28886750  0.13543314  0.42290800    -0.74900
Al511      Al  0.26145586  0.14966163  0.40462792     1.49000
C512        C  0.30769314  0.13073019  0.40857180     0.92400
O513        O  0.27913384  0.08048914  0.37679774    -0.81100
O514        O  0.22215641  0.11369421  0.33909917    -0.74700
Al515      Al  0.27887114  0.11207458  0.35785761     1.90100
O516        O  0.23983708  0.07652234  0.37585038    -0.73800
O517        O  0.20808636  0.13901596  0.38696503    -0.73600
O518        O  0.22905155  0.10286145  0.42370594    -0.79300
O519        O  0.23526578  0.16769363  0.38934868    -0.77500
O520        O  0.25572395  0.12367678  0.38150527    -1.13600
O521        O  0.27998891  0.16644539  0.37533569    -0.72800
C522        C  0.28338284  0.16267949  0.34763448     0.97900
C523        C  0.26069337  0.06677276  0.37658977     0.94300
Al524      Al  0.22702709  0.10922428  0.38160900     1.55600
O525        O  0.30603851  0.12214795  0.38229160    -0.74200
C526        C  0.21365911  0.16151988  0.38625149     0.98500
C527        C  0.23661132  0.10571287  0.31965998     0.93300
O528        O  0.25795388  0.10040339  0.32716164    -0.82800
O529        O  0.86372908  0.71606023  0.15578718    -0.82200
C530        C  0.88677684  0.77421181  0.05849504     0.97100
O531        O  0.86514371  0.77052748  0.06579683    -0.71300
O532        O  0.87033152  0.72428402  0.06906410    -0.74900
Al533      Al  0.85494749  0.74646204  0.09413852     1.49000
C534        C  0.86999629  0.70256445  0.07733034     0.92400
O535        O  0.92372796  0.72290709  0.11495476    -0.81100
O536        O  0.89196405  0.77475110  0.16413756    -0.74700
Al537      Al  0.89240360  0.72042186  0.13395808     1.90100
O538        O  0.92763326  0.76178426  0.12540063    -0.73800
O539        O  0.86714289  0.79629130  0.11918854    -0.73600
O540        O  0.90236913  0.77729359  0.07908606    -0.79300
O541        O  0.83816063  0.76920037  0.11719966    -0.77500
O542        O  0.88101420  0.74764680  0.11708146    -1.13600
O543        O  0.83850798  0.72193203  0.11805124    -0.72800
C544        C  0.84286321  0.71436657  0.14448799     0.97900
C545        C  0.93728102  0.74139687  0.11985205     0.94300
Al546      Al  0.89614128  0.77571771  0.12158096     1.55600
O547        O  0.88001391  0.69752414  0.10244089    -0.77400
C548        C  0.84491321  0.79089267  0.12118671     0.98500
C549        C  0.89933570  0.75722375  0.18056620     0.93300
O550        O  0.90461912  0.73675769  0.16906659    -0.82800
O551        O  0.87162033  0.70236951  0.41438145    -0.82200
C552        C  0.88891329  0.75485396  0.30850811     0.97100
O553        O  0.86821559  0.74730507  0.31617785    -0.71300
O554        O  0.87129672  0.70052220  0.32766107    -0.74900
Al555      Al  0.85884286  0.72699020  0.34975089     1.49000
C556        C  0.87839050  0.68073378  0.33919082     0.92400
O557        O  0.92991627  0.71030003  0.37207312    -0.81100
O558        O  0.89393857  0.76518627  0.41072361    -0.74700
Al559      Al  0.89928254  0.70774389  0.39190849     1.90100
O560        O  0.93147607  0.74985899  0.37702368    -0.73800
O561        O  0.87133339  0.77970899  0.36192461    -0.73600
O562        O  0.90563273  0.75786183  0.32776396    -0.79300
O563        O  0.84297198  0.75326161  0.36992484    -0.77500
O564        O  0.88591287  0.73151181  0.37018991    -1.13600
O565        O  0.84486549  0.70485649  0.37827970    -0.72800
C566        C  0.85157627  0.69638456  0.40354185     0.97900
C567        C  0.94216306  0.72976668  0.37333174     0.94300
Al568      Al  0.89964434  0.76074923  0.36942191     1.55600
O569        O  0.88979880  0.68093131  0.36424951    -0.77400
C570        C  0.84987100  0.77527561  0.36862684     0.98500
C571        C  0.90057530  0.75078195  0.43133284     0.93300
O572        O  0.90898126  0.72967155  0.42502134    -0.82800
O573        O  0.11643102  0.70604300  0.08251590    -0.82200
C574        C  0.09753326  0.76112259  0.18711531     0.97100
O575        O  0.11806249  0.75325149  0.17972413    -0.71300
O576        O  0.11147183  0.70640862  0.16982119    -0.74900
Al577      Al  0.12652888  0.73127897  0.14751248     1.49000
C578        C  0.10528668  0.68633478  0.15803866     0.92400
O579        O  0.05595360  0.71503168  0.12066887    -0.81100
O580        O  0.09161934  0.76979959  0.08436058    -0.74700
Al581      Al  0.08745461  0.71227558  0.10321131     1.90100
O582        O  0.05424489  0.75483669  0.11934273    -0.73800
O583        O  0.11713467  0.78435940  0.13135153    -0.73600
O584        O  0.08118375  0.76417557  0.16753252    -0.79300
O585        O  0.14428935  0.75587198  0.12703218    -0.77500
O586        O  0.10026467  0.73633813  0.12539641    -1.13600
O587        O  0.14057261  0.70730765  0.12134277    -0.72800
C588        C  0.13524096  0.69870114  0.09579073     0.97900
C589        C  0.04353286  0.73438680  0.12054189     0.94300
Al590      Al  0.08701026  0.76588123  0.12566227     1.55600
O591        O  0.09540424  0.68601998  0.13202002    -0.77400
C592        C  0.13897987  0.77830374  0.12713941     0.98500
C593        C  0.08542736  0.75538022  0.06360330     0.93300
O594        O  0.07890087  0.73360833  0.06963286    -0.82800
O595        O  0.12079916  0.72136730  0.33829129    -0.82200
C596        C  0.09560808  0.77598564  0.43751668     0.97100
O597        O  0.11735148  0.77366185  0.42982239    -0.71300
O598        O  0.11621329  0.72704192  0.42495744    -0.74900
Al599      Al  0.12886817  0.75116438  0.40030399     1.49000
C600        C  0.11543442  0.70542016  0.41582769     0.92400
O601        O  0.06123930  0.72427887  0.37924077    -0.81100
O602        O  0.09029790  0.77911673  0.33234426    -0.74700
Al603      Al  0.09228980  0.72395418  0.36009201     1.90100
O604        O  0.05533525  0.76296729  0.36996719    -0.73800
O605        O  0.11287636  0.80095379  0.37868731    -0.73600
O606        O  0.07945325  0.77830990  0.41741789    -0.79300
O607        O  0.14342925  0.77575192  0.37758581    -0.77500
O608        O  0.10238152  0.75120418  0.37813888    -1.13600
O609        O  0.14628540  0.72847810  0.37531743    -0.72800
C610        C  0.14182639  0.72075716  0.34899524     0.97900
C611        C  0.04685058  0.74206289  0.37503428     0.94300
Al612      Al  0.08567342  0.77850210  0.37491373     1.55600
O613        O  0.10535683  0.70109344  0.39057258    -0.77400
C614        C  0.13516104  0.79704397  0.37497842     0.98500
C615        C  0.08426990  0.76163753  0.31494089     0.93300
O616        O  0.07952571  0.74068433  0.32547652    -0.82800
O617        O  0.69498542  0.88573274  0.09433836    -0.82200
C618        C  0.75022426  0.89945447  0.20019731     0.97100
O619        O  0.74159116  0.87901972  0.19187477    -0.71300
O620        O  0.69542208  0.88598174  0.18205104    -0.74900
Al621      Al  0.71982560  0.87139317  0.15875504     1.49000
C622        C  0.67579560  0.89319021  0.17068537     0.92400
O623        O  0.70649082  0.94395824  0.13864114    -0.81100
O624        O  0.75778784  0.90663510  0.09681323    -0.74700
Al625      Al  0.70204779  0.91342352  0.11780500     1.90100
O626        O  0.74553556  0.94439213  0.13380600    -0.73800
O627        O  0.77201389  0.88095181  0.14374869    -0.73600
O628        O  0.75386497  0.91630696  0.18130478    -0.79300
O629        O  0.74392087  0.85336126  0.13770227    -0.77500
O630        O  0.72544326  0.89860914  0.13851818    -1.13600
O631        O  0.69612983  0.85890209  0.13058343    -0.72800
C632        C  0.68796691  0.86587190  0.10531595     0.97900
C633        C  0.72601874  0.95581770  0.13731978     0.94300
Al634      Al  0.75493004  0.91113429  0.13894104     1.55600
O635        O  0.67585529  0.90457008  0.14568624    -0.77400
C636        C  0.76596176  0.85911059  0.13845546     0.98500
C637        C  0.74342283  0.91477122  0.07689528     0.93300
O638        O  0.72294887  0.92305708  0.08463155    -0.82800
O639        O  0.70934933  0.87218938  0.35235186    -0.82200
C640        C  0.76521748  0.89738542  0.45202683     0.97100
O641        O  0.75961572  0.87559973  0.44599579    -0.71300
O642        O  0.71390423  0.88228023  0.43981047    -0.74900
Al643      Al  0.73619902  0.86517901  0.41670917     1.49000
C644        C  0.69281986  0.88190733  0.42974133     0.92400
O645        O  0.71430290  0.93245505  0.39296485    -0.81100
O646        O  0.76656529  0.90005749  0.34629448    -0.74700
Al647      Al  0.71262238  0.90155976  0.37365941     1.90100
O648        O  0.75300285  0.93772531  0.38423297    -0.73800
O649        O  0.78610415  0.87504261  0.39230876    -0.73600
O650        O  0.76820948  0.91252881  0.43102093    -0.79300
O651        O  0.75832299  0.84700727  0.39576358    -0.77500
O652        O  0.73873370  0.89053251  0.39267352    -1.13600
O653        O  0.71230046  0.84824013  0.39192058    -0.72800
C654        C  0.70631979  0.85171551  0.36463132     0.97900
C655        C  0.73218486  0.94645475  0.38924185     0.94300
Al656      Al  0.76672218  0.90525973  0.38884916     1.55600
O657        O  0.68911884  0.89022243  0.40348947    -0.77400
C658        C  0.77975179  0.85259943  0.39111961     0.98500
C659        C  0.75000236  0.90780642  0.32888817     0.93300
O660        O  0.72963564  0.91357428  0.33927393    -0.82800
O661        O  0.73207133  0.09040919  0.07121690    -0.82200
C662        C  0.77113197  0.11538540  0.17934224     0.97100
O663        O  0.77377656  0.09882624  0.15984195    -0.71300
O664        O  0.75785663  0.06980920  0.11704755    -0.74900
Al665      Al  0.77077919  0.10285634  0.11716783     1.49000
C666        C  0.73796658  0.06126620  0.12618652     0.92400
O667        O  0.69386100  0.11682326  0.13578658    -0.81100
O668        O  0.71559920  0.15921856  0.11665607    -0.74700
Al669      Al  0.71609252  0.10430390  0.10550318     1.90100
O670        O  0.71950204  0.13102053  0.16845805    -0.73800
O671        O  0.76193575  0.16102443  0.11678882    -0.73600
O672        O  0.76518769  0.13667370  0.17107729    -0.79300
O673        O  0.79001513  0.13327982  0.11664676    -0.77500
O674        O  0.74258915  0.11747307  0.12110049    -1.13600
O675        O  0.76888731  0.10499216  0.07411366    -0.72800
C676        C  0.75163962  0.09628185  0.05850774     0.97900
C677        C  0.69817593  0.12724732  0.16079748     0.94300
Al678      Al  0.74071071  0.14488398  0.14164963     1.55600
O679        O  0.71989433  0.07523408  0.12847552    -0.77400
C680        C  0.78352833  0.15548968  0.11326249     0.98500
C681        C  0.70743014  0.15323670  0.09091045     0.93300
O682        O  0.71013077  0.13179863  0.08116046    -0.82800
O683        O  0.69257767  0.12306480  0.40600292    -0.82200
C684        C  0.75056405  0.10481960  0.30428474     0.97100
O685        O  0.73954095  0.12439340  0.31064478    -0.71300
O686        O  0.69276762  0.12066147  0.31957092    -0.74900
Al687      Al  0.71869322  0.13446467  0.34232476     1.49000
C688        C  0.67316672  0.11378996  0.33088178     0.92400
O689        O  0.70282241  0.06258416  0.36587768    -0.81100
O690        O  0.75432521  0.09940701  0.40984568    -0.74700
Al691      Al  0.69899831  0.09420742  0.38450424     1.90100
O692        O  0.74194678  0.06180948  0.37218096    -0.73800
O693        O  0.77084996  0.12336558  0.36164969    -0.73600
O694        O  0.75358505  0.08823496  0.32391602    -0.79300
O695        O  0.74423330  0.15260480  0.36169671    -0.77500
O696        O  0.72331492  0.10769207  0.36429868    -1.13600
O697        O  0.69631127  0.14928175  0.36942406    -0.72800
C698        C  0.68732431  0.14335345  0.39434474     0.97900
C699        C  0.72219522  0.05062616  0.36951898     0.94300
Al700      Al  0.75260171  0.09429630  0.36669224     1.55600
O701        O  0.67345050  0.10263591  0.35583166    -0.77400
C702        C  0.76600379  0.14579366  0.36229296     0.98500
C703        C  0.73895469  0.09123725  0.42829474     0.93300
O704        O  0.71837453  0.08473746  0.41869959    -0.82800
C705        C  0.76007010  0.08829024  0.22194316    -0.06200
C706        C  0.77210315  0.10948948  0.21208821    -0.00300
C707        C  0.78092170  0.12628280  0.23385418    -0.08800
C708        C  0.77486575  0.12290248  0.26418786    -0.06200
C709        C  0.76090566  0.10301230  0.27367962    -0.00300
C710        C  0.75429887  0.08472813  0.25257156    -0.08700
C711        C  0.74003700  0.06243667  0.26208172     0.61600
H712        H  0.75352546  0.07544635  0.20518194     0.12300
H713        H  0.78001673  0.13666323  0.28063781     0.12300
C714        C  0.79561001  0.14851474  0.22531545     0.61900
F715        F  0.73462586  0.04730025  0.23792003    -0.23300
F716        F  0.71861414  0.06962183  0.27501516    -0.20600
F717        F  0.75335900  0.04911236  0.28279123    -0.20300
F718        F  0.78034547  0.16711240  0.21622031    -0.20400
F719        F  0.81121093  0.14286847  0.20225726    -0.20700
F720        F  0.80933858  0.15676402  0.24950473    -0.23400
C721        C  0.73637541  0.07670615  0.01183668    -0.06200
C722        C  0.75324246  0.09270572  0.02507173    -0.00300
C723        C  0.76910064  0.10571538  0.00589981    -0.08800
C724        C  0.76269870  0.10454267  0.47410853    -0.06200
C725        C  0.74442706  0.08962272  0.46155391    -0.00300
C726        C  0.73122029  0.07422988  0.48134413    -0.08700
C727        C  0.71282533  0.05551507  0.47029574     0.61600
H728        H  0.72489398  0.06615177  0.02644452     0.12300
H729        H  0.77317108  0.11570745  0.45901723     0.12300
C730        C  0.78940364  0.12151232  0.01836670     0.61900
F731        F  0.70632113  0.03937326  0.49275829    -0.23300
F732        F  0.72242896  0.04180194  0.44730107    -0.20600
F733        F  0.69212942  0.06717474  0.46034103    -0.20300
F734        F  0.80474205  0.10735397  0.03581780    -0.20400
F735        F  0.78014138  0.14026485  0.03562308    -0.20700
F736        F  0.80292778  0.13186978  0.99572521    -0.23400
C737        C  0.71056088  0.98149305  0.36634689    -0.06200
C738        C  0.72825741  0.97315340  0.38684409    -0.00300
C739        C  0.74287714  0.99028982  0.40228272    -0.08800
C740        C  0.74014939  0.01514910  0.39540201    -0.06200
C741        C  0.72273768  0.02369935  0.37459084    -0.00300
C742        C  0.70755029  0.00658714  0.35982632    -0.08700
C743        C  0.68918210  0.01456156  0.33634863     0.61600
H744        H  0.69956036  0.96803733  0.35472765     0.12300
H745        H  0.75173280  0.02829805  0.40665924     0.12300
C746        C  0.76049796  0.98258808  0.42690702     0.61900
F747        F  0.67850268  0.99477303  0.32202090    -0.23300
F748        F  0.70030914  0.02863855  0.31473519    -0.20600
F749        F  0.67124857  0.02807884  0.34986681    -0.20300
F750        F  0.77913352  0.96912644  0.41490832    -0.20400
F751        F  0.74857156  0.96863963  0.44787530    -0.20700
F752        F  0.77043924  0.00250308  0.44180493    -0.23400
C753        C  0.74281631  0.92379753  0.24586365    -0.06200
C754        C  0.75460552  0.90392721  0.23263482    -0.00300
C755        C  0.76834539  0.88789283  0.25096333    -0.08800
C756        C  0.76750966  0.89062846  0.28241637    -0.06200
C757        C  0.75369645  0.90905887  0.29588109    -0.00300
C758        C  0.74222519  0.92682900  0.27729693    -0.08700
C759        C  0.72929644  0.94888507  0.29025321     0.61600
H760        H  0.73285391  0.93622958  0.23141008     0.12300
H761        H  0.77657193  0.87740553  0.29670437     0.12300
C762        C  0.78330080  0.86751566  0.23761647     0.61900
F763        F  0.72482677  0.96643503  0.26849079    -0.23300
F764        F  0.74336157  0.95956626  0.31257570    -0.20600
F765        F  0.70741264  0.94186470  0.30201673    -0.20300
F766        F  0.79524496  0.87568932  0.21239188    -0.20400
F767        F  0.76842056  0.84827690  0.22979307    -0.20700
F768        F  0.80045887  0.85913215  0.25797798    -0.23400
C769        C  0.76921954  0.89691813  0.03681777    -0.06200
C770        C  0.75071146  0.91349964  0.04436793    -0.00300
C771        C  0.73946238  0.92704503  0.02069341    -0.08800
C772        C  0.74608118  0.92227358  0.49103582    -0.06200
C773        C  0.76424741  0.90556382  0.48372596    -0.00300
C774        C  0.77765724  0.89428392  0.50699961    -0.08700
C775        C  0.79844757  0.87727171  0.50000081     0.61600
H776        H  0.77777146  0.88640652  0.05458280     0.12300
H777        H  0.73561278  0.93019064  0.47282353     0.12300
C778        C  0.71943265  0.94534416  0.02644374     0.61900
F779        F  0.81150575  0.87122057  0.52565672    -0.23300
F780        F  0.81392700  0.88853751  0.48016647    -0.20600
F781        F  0.78980901  0.85592368  0.48716164    -0.20300
F782        F  0.72686815  0.96219407  0.04786409    -0.20400
F783        F  0.69910016  0.93324919  0.03626385    -0.20700
F784        F  0.71438181  0.95921437  0.50146125    -0.23400
C785        C  0.74971186  0.99381480  0.14492009    -0.06200
C786        C  0.72710222  0.98320318  0.13833507    -0.00300
C787        C  0.70781835  0.99877391  0.12945553    -0.08800
C788        C  0.71209083  0.02416114  0.12734327    -0.06200
C789        C  0.73507760  0.03449453  0.13213630    -0.00300
C790        C  0.75432603  0.01894081  0.14123759    -0.08700
C791        C  0.77982634  0.02832959  0.14664606     0.61600
H792        H  0.76433462  0.98192257  0.15182157     0.12300
H793        H  0.69755743  0.03611836  0.12031877     0.12300
C794        C  0.68319371  0.98882522  0.12052484     0.61900
F795        F  0.79483619  0.01050395  0.15856483    -0.23300
F796        F  0.77954972  0.04762426  0.16673371    -0.20600
F797        F  0.78965461  0.03582719  0.11973992    -0.20300
F798        F  0.66749462  0.00716949  0.11162718    -0.20400
F799        F  0.67302049  0.97691040  0.14466897    -0.20700
F800        F  0.68548776  0.97279329  0.09662028    -0.23400
C801        C  0.07317563  0.75152647  0.23117208    -0.06200
C802        C  0.09221314  0.76498975  0.21918210    -0.00300
C803        C  0.10645086  0.78004575  0.23821761    -0.08800
C804        C  0.10186092  0.78004139  0.26931677    -0.06200
C805        C  0.08413718  0.76484580  0.28177580    -0.00300
C806        C  0.06893346  0.75090981  0.26224617    -0.08700
C807        C  0.04887223  0.73458201  0.27373724     0.61600
H808        H  0.06253578  0.74015325  0.21607517     0.12300
H809        H  0.11330835  0.79061748  0.28434921     0.12300
C810        C  0.12655036  0.79575274  0.22578043     0.61900
F811        F  0.03295334  0.72803199  0.25088897    -0.23300
F812        F  0.03583384  0.74663122  0.29556759    -0.20600
F813        F  0.05858953  0.71335711  0.28559665    -0.20300
F814        F  0.11793073  0.80944977  0.20184054    -0.20400
F815        F  0.14519304  0.78106113  0.21609643    -0.20700
F816        F  0.13569206  0.81171590  0.24726481    -0.23400
C817        C  0.10792545  0.78205684  0.49039913    -0.06200
C818        C  0.09001108  0.77401033  0.47014797    -0.00300
C819        C  0.07041572  0.76002760  0.48130976    -0.08800
C820        C  0.06973982  0.75328635  0.01125538    -0.06200
C821        C  0.08592251  0.76400723  0.03184359    -0.00300
C822        C  0.10298876  0.78140351  0.02126309    -0.08700
C823        C  0.12114819  0.79399862  0.04203112     0.61600
H824        H  0.12268930  0.79273767  0.48164386     0.12300
H825        H  0.05664611  0.74040237  0.01968649     0.12300
C826        C  0.05057632  0.75029336  0.46081746     0.61900
F827        F  0.13717987  0.80845071  0.02636887    -0.23300
F828        F  0.13444497  0.77666631  0.05758757    -0.20600
F829        F  0.10926124  0.80900298  0.06206980    -0.20300
F830        F  0.06042615  0.73464081  0.43990714    -0.20400
F831        F  0.03910754  0.76945254  0.44635274    -0.20700
F832        F  0.03330246  0.73742289  0.47651422    -0.23400
C833        C  0.80834367  0.78966565  0.37722370    -0.06200
C834        C  0.83270432  0.79580249  0.37434111    -0.00300
C835        C  0.83968023  0.82082404  0.37772171    -0.08800
C836        C  0.82167494  0.83853799  0.38244566    -0.06200
C837        C  0.79727671  0.83238666  0.38520277    -0.00300
C838        C  0.79047371  0.80713351  0.38313644    -0.08700
C839        C  0.76475368  0.79784465  0.38737311     0.61600
H840        H  0.80329586  0.77064696  0.37500526     0.12300
H841        H  0.82667115  0.85758839  0.38448754     0.12300
C842        C  0.86583341  0.82930664  0.37727017     0.61900
F843        F  0.76297514  0.77270534  0.38430805    -0.23300
F844        F  0.74954541  0.80804482  0.36600120    -0.20600
F845        F  0.75693659  0.80358272  0.41598058    -0.20300
F846        F  0.87556596  0.82512667  0.34930654    -0.20400
F847        F  0.87912529  0.81707078  0.39897637    -0.20700
F848        F  0.86806766  0.85406383  0.38319827    -0.23400
C849        C  0.97905909  0.75379820  0.36619468    -0.06200
C850        C  0.96911775  0.73062168  0.37145447    -0.00300
C851        C  0.98499634  0.71077227  0.37710427    -0.08800
C852        C  0.01016805  0.71527156  0.37827262    -0.06200
C853        C  0.01995747  0.73884642  0.37429533    -0.00300
C854        C  0.00378621  0.75865024  0.36813186    -0.08700
C855        C  0.01173401  0.78518587  0.36371901     0.61600
H856        H  0.96695397  0.76868034  0.36081487     0.12300
H857        H  0.02244338  0.70026889  0.38249132     0.12300
C858        C  0.97562155  0.68508274  0.38210719     0.61900
F859        F  0.99246660  0.80097975  0.35965221    -0.23300
F860        F  0.02589047  0.78708805  0.33841173    -0.20600
F861        F  0.02429990  0.79328791  0.38888801    -0.20300
F862        F  0.96281348  0.67738581  0.35693560    -0.20400
F863        F  0.96082045  0.68474293  0.40692725    -0.20700
F864        F  0.99412193  0.66857128  0.38713812    -0.23400
C865        C  0.80500630  0.80160991  0.14173882    -0.06200
C866        C  0.82590301  0.80953510  0.12690862    -0.00300
C867        C  0.82645082  0.83350309  0.11486914    -0.08800
C868        C  0.80633388  0.84881945  0.11900318    -0.06200
C869        C  0.78538997  0.84079986  0.13359392    -0.00300
C870        C  0.78453920  0.81658141  0.14484264    -0.08700
C871        C  0.76227142  0.80633107  0.15990329     0.61600
H872        H  0.80462522  0.78312256  0.15038390     0.12300
H873        H  0.80666315  0.86730759  0.11034800     0.12300
C874        C  0.84759767  0.84265700  0.09665699     0.61900
F875        F  0.76616117  0.78311555  0.17131145    -0.23300
F876        F  0.74359589  0.80488110  0.13916182    -0.20600
F877        F  0.75552698  0.82119106  0.18347561    -0.20300
F878        F  0.85179165  0.82687997  0.07291412    -0.20400
F879        F  0.86795477  0.84408821  0.11479970    -0.20700
F880        F  0.84334253  0.86565112  0.08477962    -0.23400
C881        C  0.88373519  0.77545355  0.22733959    -0.06200
C882        C  0.90043743  0.75974922  0.21375736    -0.00300
C883        C  0.91581746  0.74514327  0.23227326    -0.08800
C884        C  0.91198664  0.74494223  0.26343333    -0.06200
C885        C  0.89380372  0.75895044  0.27647179    -0.00300
C886        C  0.88020488  0.77535799  0.25858342    -0.08700
C887        C  0.86252807  0.79304214  0.27255608     0.61600
H888        H  0.87250650  0.78693491  0.21316683     0.12300
H889        H  0.92248004  0.73287647  0.27777938     0.12300
C890        C  0.93603192  0.72949421  0.21974099     0.61900
F891        F  0.85339157  0.80944275  0.25166875    -0.23300
F892        F  0.87417797  0.80625396  0.29486569    -0.20600
F893        F  0.84343225  0.78044845  0.28481829    -0.20300
F894        F  0.94886885  0.74252895  0.19868013    -0.20400
F895        F  0.92664287  0.70858067  0.20660491    -0.20700
F896        F  0.95211287  0.72238235  0.24212129    -0.23400
C897        C  0.87433721  0.77621082  0.00492996    -0.06200
C898        C  0.89315644  0.77254890  0.02583968    -0.00300
C899        C  0.91553464  0.76325798  0.01519362    -0.08800
C900        C  0.91812282  0.75851049  0.48215581    -0.06200
C901        C  0.89791750  0.75872631  0.46305335    -0.00300
C902        C  0.87539439  0.76636194  0.47451824    -0.08700
C903        C  0.85273415  0.76715380  0.45503728     0.61600
H904        H  0.85745065  0.78350842  0.01296958     0.12300
H905        H  0.93516069  0.75286383  0.47275674     0.12300
C906        C  0.93672667  0.75845092  0.03611908     0.61900
F907        F  0.83216400  0.77032536  0.47194913    -0.23300
F908        F  0.85007071  0.74562603  0.43905003    -0.20600
F909        F  0.85428872  0.78648757  0.43534124    -0.20300
F910        F  0.93037233  0.74071875  0.05654212    -0.20400
F911        F  0.94322130  0.77972414  0.05098970    -0.20700
F912        F  0.95675399  0.75015812  0.02086471    -0.23400
C913        C  0.97567539  0.71751142  0.11195294    -0.06200
C914        C  0.96457219  0.73968281  0.12019449    -0.00300
C915        C  0.97990187  0.75947645  0.12956834    -0.08800
C916        C  0.00507596  0.75602978  0.13022886    -0.06200
C917        C  0.01624468  0.73417336  0.12147817    -0.00300
C918        C  0.00113468  0.71436814  0.11220104    -0.08700
C919        C  0.01154337  0.69010495  0.10203700     0.61600
H920        H  0.96415095  0.70251258  0.10503543     0.12300
H921        H  0.01655793  0.77092574  0.13752908     0.12300
C922        C  0.97047906  0.78462183  0.13874737     0.61900
F923        F  0.99376583  0.67392432  0.09267114    -0.23300
F924        F  0.02406096  0.67935762  0.12560790    -0.20600
F925        F  0.02685495  0.69378902  0.07813643    -0.20300
F926        F  0.95537892  0.78257362  0.16313936    -0.20400
F927        F  0.95833154  0.79524821  0.11477977    -0.20700
F928        F  0.98880807  0.80050034  0.14713983    -0.23400
C929        C  0.21785440  0.11993292  0.23945885    -0.06200
C930        C  0.23399353  0.10448261  0.22439601    -0.00300
C931        C  0.24617996  0.08587754  0.24039474    -0.08800
C932        C  0.24388715  0.08514443  0.27167699    -0.06200
C933        C  0.23018045  0.10251904  0.28739244    -0.00300
C934        C  0.21505816  0.11869653  0.27096049    -0.08700
C935        C  0.19609592  0.13424225  0.28622930     0.61600
H936        H  0.20791067  0.13333757  0.22641134     0.12300
H937        H  0.25425501  0.07188766  0.28443414     0.12300
C938        C  0.26293323  0.06800503  0.22483248     0.61900
F939        F  0.18227230  0.14712301  0.26553472    -0.23300
F940        F  0.20671945  0.15086942  0.30564888    -0.20600
F941        F  0.18082401  0.11926424  0.30226423    -0.20300
F942        F  0.27429931  0.05248374  0.24505219    -0.20400
F943        F  0.28054754  0.08071867  0.20959479    -0.20700
F944        F  0.24990829  0.05375603  0.20471131    -0.23400
C945        C  0.24224451  0.08705453  0.48453210    -0.06200
C946        C  0.23309979  0.11009190  0.47641887    -0.00300
C947        C  0.22490141  0.12614019  0.49917362    -0.08800
C948        C  0.22946304  0.11944026  0.02930487    -0.06200
C949        C  0.24114901  0.09777419  0.03806907    -0.00300
C950        C  0.24831636  0.08074625  0.01584137    -0.08700
C951        C  0.25965104  0.05637610  0.02399418     0.61600
H952        H  0.24816673  0.07486943  0.46684380     0.12300
H953        H  0.22398576  0.13225388  0.04655071     0.12300
C954        C  0.21332735  0.15056937  0.49176078     0.61900
F955        F  0.26004885  0.04063334  0.99956602    -0.23300
F956        F  0.24655835  0.04525580  0.04641420    -0.20600
F957        F  0.28311135  0.05991962  0.03386248    -0.20300
F958        F  0.19634148  0.14768926  0.46898629    -0.20400
F959        F  0.23079180  0.16690650  0.48274825    -0.20700
F960        F  0.20179811  0.16046448  0.51642960    -0.23400
C961        C  0.17236284  0.85560038  0.37922945    -0.06200
C962        C  0.19184481  0.84912673  0.36085270    -0.00300
C963        C  0.19078088  0.82701002  0.34421128    -0.08800
C964        C  0.17114607  0.81126061  0.34848799    -0.06200
C965        C  0.15239815  0.81696243  0.36824207    -0.00300
C966        C  0.15250540  0.83985867  0.38325179    -0.08700
C967        C  0.13231787  0.84731508  0.40415134     0.61600
H968        H  0.17316432  0.87288011  0.39111469     0.12300
H969        H  0.17055629  0.79386736  0.33682865     0.12300
C970        C  0.20990899  0.82010932  0.32151893     0.61900
F971        F  0.13668596  0.86976977  0.41757030    -0.23300
F972        F  0.12985710  0.83016815  0.42674074    -0.20600
F973        F  0.11093372  0.84905067  0.38800538    -0.20300
F974        F  0.23128424  0.81459930  0.33626024    -0.20400
F975        F  0.21352709  0.83930053  0.30185773    -0.20700
F976        F  0.20321603  0.79987615  0.30461289    -0.23400
C977        C  0.28302077  0.99924107  0.37264694    -0.06200
C978        C  0.26098074  0.98646967  0.37082238    -0.00300
C979        C  0.23921431  0.00060369  0.37027775    -0.08800
C980        C  0.24060962  0.02620858  0.37306717    -0.06200
C981        C  0.26247447  0.03908301  0.37536361    -0.00300
C982        C  0.28426185  0.02521118  0.37450686    -0.08700
C983        C  0.30881464  0.03743892  0.37527284     0.61600
H984        H  0.29946503  0.98861345  0.37274307     0.12300
H985        H  0.22403025  0.03655756  0.37338320     0.12300
C986        C  0.21409443  0.98942044  0.36672847     0.61900
F987        F  0.32741375  0.02058952  0.37462198    -0.23300
F988        F  0.31139246  0.05105277  0.40136629    -0.20600
F989        F  0.31115658  0.05245372  0.35047206    -0.20300
F990        F  0.20841128  0.97617319  0.39215403    -0.20400
F991        F  0.21314096  0.97453635  0.34158340    -0.20700
F992        F  0.19631829  0.00695167  0.36293319    -0.23400
C993        C  0.15094753  0.82224937  0.11925467    -0.06200
C994        C  0.15822728  0.79771382  0.12283062    -0.00300
C995        C  0.18348234  0.79270511  0.12260786    -0.08800
C996        C  0.19997240  0.81216360  0.11914821    -0.06200
C997        C  0.19277540  0.83666278  0.11543666    -0.00300
C998        C  0.16753928  0.84174590  0.11542221    -0.08700
C999        C  0.15775973  0.86746970  0.11128324     0.61600
H1000       H  0.13183917  0.82614496  0.11936539     0.12300
H1001       H  0.21905404  0.80816606  0.11917971     0.12300
C1002       C  0.19349229  0.76696119  0.12540462     0.61900
F1003       F  0.13281810  0.86802490  0.11076461    -0.23300
F1004       F  0.16559132  0.87700957  0.08435865    -0.20600
F1005       F  0.16551391  0.88215861  0.13476148    -0.20300
F1006       F  0.18549840  0.75324257  0.10112564    -0.20400
F1007       F  0.18613730  0.75650428  0.15209175    -0.20700
F1008       F  0.21843721  0.76644725  0.12538510    -0.23400
C1009       C  0.24353813  0.93258004  0.22628739    -0.06200
C1010       C  0.23071355  0.91489793  0.20948212    -0.00300
C1011       C  0.21429199  0.89930311  0.22433904    -0.08800
C1012       C  0.21455585  0.89909386  0.25590261    -0.06200
C1013       C  0.22943471  0.91491933  0.27249887    -0.00300
C1014       C  0.24275790  0.93320866  0.25779609    -0.08700
C1015       C  0.25655748  0.95271890  0.27527017     0.61600
H1016       H  0.25503038  0.94531842  0.21454015     0.12300
H1017       H  0.20397427  0.88574904  0.26798208     0.12300
C1018       C  0.19702378  0.88265358  0.20737351     0.61900
F1019       F  0.26922585  0.96807484  0.25643616    -0.23300
F1020       F  0.27278649  0.94215252  0.29515059    -0.20600
F1021       F  0.24047429  0.96679145  0.29127218    -0.20300
F1022       F  0.20962965  0.86571510  0.19064470    -0.20400
F1023       F  0.18265797  0.89666066  0.18856587    -0.20700
F1024       F  0.18200909  0.87005074  0.22658844    -0.23400
C1025       C  0.22386884  0.89198438  0.46851283    -0.06200
C1026       C  0.23641467  0.91289772  0.45923983    -0.00300
C1027       C  0.24514772  0.92971661  0.48103951    -0.08800
C1028       C  0.24458446  0.92498945  0.01176322    -0.06200
C1029       C  0.23223700  0.90426682  0.02169512    -0.00300
C1030       C  0.22002194  0.88911094  0.00069030    -0.08700
C1031       C  0.20397694  0.86828052  0.01080286     0.61600
H1032       H  0.21691544  0.87952032  0.45154115     0.12300
H1033       H  0.25398181  0.93623361  0.02818965     0.12300
C1034       C  0.25615794  0.95410212  0.47238528     0.61900
F1035       F  0.18635081  0.87746573  0.02937948    -0.23300
F1036       F  0.21724205  0.85089620  0.02623587    -0.20600
F1037       F  0.19269561  0.85678555  0.98670147    -0.20300
F1038       F  0.24216478  0.96517121  0.45032928    -0.20400
F1039       F  0.27924451  0.95066916  0.46182778    -0.20700
F1040       F  0.25744560  0.96988473  0.49674866    -0.23400
C1041       C  0.28381592  0.98664184  0.13613157    -0.06200
C1042       C  0.26450959  0.97592913  0.11992968    -0.00300
C1043       C  0.24722499  0.99141551  0.10595149    -0.08800
C1044       C  0.24929536  0.01676073  0.10993017    -0.06200
C1045       C  0.26806505  0.02762612  0.12683765    -0.00300
C1046       C  0.28598351  0.01229333  0.13980895    -0.08700
C1047       C  0.30680108  0.02269733  0.15815883     0.61600
H1048       H  0.29690296  0.97465054  0.14670528     0.12300
H1049       H  0.23574976  0.02843244  0.09976700     0.12300
C1050       C  0.22662378  0.98161774  0.08651449     0.61900
F1051       F  0.32094178  0.00449001  0.17080823    -0.23300
F1052       F  0.29805187  0.03699131  0.18125928    -0.20600
F1053       F  0.32131467  0.03671829  0.13992518    -0.20300
F1054       F  0.20933944  0.97097869  0.10442426    -0.20400
F1055       F  0.23527696  0.96460154  0.06636377    -0.20700
F1056       F  0.21550991  0.99991612  0.06995117    -0.23400
C1057       C  0.17941077  0.22274601  0.38221398    -0.06200
C1058       C  0.15919622  0.21640415  0.36455565    -0.00300
C1059       C  0.15670209  0.19156278  0.35497277    -0.08800
C1060       C  0.17465892  0.17444389  0.36313494    -0.06200
C1061       C  0.19494628  0.18085027  0.38051691    -0.00300
C1062       C  0.19714331  0.20550669  0.39078471    -0.08700
C1063       C  0.21756062  0.21380374  0.41152708     0.61600
H1064       H  0.18105783  0.24149895  0.38977388     0.12300
H1065       H  0.17310847  0.15568527  0.35557989     0.12300
C1066       C  0.13550403  0.18275338  0.33583303     0.61900
F1067       F  0.21361666  0.23701876  0.42296049    -0.23300
F1068       F  0.23899828  0.21433114  0.39600046    -0.20600
F1069       F  0.21960661  0.19803719  0.43567161    -0.20300
F1070       F  0.13311494  0.19718599  0.31045866    -0.20400
F1071       F  0.11458874  0.18368831  0.35242279    -0.20700
F1072       F  0.13843075  0.15883851  0.32627678    -0.23400
C1073       C  0.17819620  0.15637704  0.11223954    -0.06200
C1074       C  0.19827512  0.16428653  0.12916773    -0.00300
C1075       C  0.19798456  0.18756704  0.14309234    -0.08800
C1076       C  0.17839271  0.20298443  0.13725554    -0.06200
C1077       C  0.15899125  0.19580134  0.11867219    -0.00300
C1078       C  0.15832656  0.17176856  0.10676928    -0.08700
C1079       C  0.13736455  0.16264285  0.08758580     0.61600
H1080       H  0.17853585  0.13819020  0.10258337     0.12300
H1081       H  0.17846380  0.22128648  0.14657055     0.12300
C1082       C  0.21793236  0.19617249  0.16435479     0.61900
F1083       F  0.14092741  0.13891704  0.07769021    -0.23300
F1084       F  0.13448940  0.17739908  0.06256537    -0.20600
F1085       F  0.11648949  0.16295224  0.10428515    -0.20300
F1086       F  0.23862988  0.20087286  0.14835094    -0.20400
F1087       F  0.22259198  0.17846713  0.18581970    -0.20700
F1088       F  0.21165859  0.21739939  0.17937523    -0.23400
C1089       C  0.07442569  0.25883010  0.21681931    -0.06200
C1090       C  0.09242876  0.24722378  0.20012645    -0.00300
C1091       C  0.11157827  0.23506486  0.21545310    -0.08800
C1092       C  0.11289156  0.23671940  0.24702989    -0.06200
C1093       C  0.09532048  0.24909174  0.26356857    -0.00300
C1094       C  0.07522350  0.25955512  0.24843063    -0.08700
C1095       C  0.05498659  0.27194832  0.26539521     0.61600
H1096       H  0.05976147  0.26762462  0.20473441     0.12300
H1097       H  0.12796596  0.22870783  0.25916338     0.12300
C1098       C  0.13114947  0.22135902  0.19874611     0.61900
F1099       F  0.04300052  0.25477472  0.28233863    -0.23300
F1100       F  0.03833940  0.28269483  0.24612795    -0.20600
F1101       F  0.06414950  0.28995350  0.28416916    -0.20300
F1102       F  0.14245945  0.23697373  0.17899289    -0.20400
F1103       F  0.12111780  0.20196577  0.18300268    -0.20700
F1104       F  0.14851075  0.21194169  0.21812151    -0.23400
C1105       C  0.11496489  0.23037227  0.99225688    -0.06200
C1106       C  0.09624673  0.23565141  0.01225901    -0.00300
C1107       C  0.07433081  0.24556538  0.00042155    -0.08800
C1108       C  0.07092943  0.25339237  0.46913890    -0.06200
C1109       C  0.09078240  0.25184898  0.45011748    -0.00300
C1110       C  0.11336459  0.24417349  0.46180157    -0.08700
C1111       C  0.13578289  0.24309507  0.44255036     0.61600
H1112       H  0.13145796  0.22258107  0.00126301     0.12300
H1113       H  0.05391974  0.25941351  0.45953333     0.12300
C1114       C  0.05329221  0.25215419  0.02033643     0.61900
F1115       F  0.15654623  0.23987264  0.45966535    -0.23300
F1116       F  0.13836864  0.26460993  0.42659697    -0.20600
F1117       F  0.13380027  0.22362471  0.42290132    -0.20300
F1118       F  0.06044219  0.27011923  0.04036015    -0.20400
F1119       F  0.04555563  0.23171927  0.03574320    -0.20700
F1120       F  0.03382206  0.26107058  0.00398159    -0.23400
C1121       C  0.80678787  0.20137745  0.37515018    -0.06200
C1122       C  0.82759044  0.19473141  0.35902603    -0.00300
C1123       C  0.82800496  0.17182150  0.34430883    -0.08800
C1124       C  0.80750230  0.15655107  0.34613334    -0.06200
C1125       C  0.78655000  0.16348064  0.36184266    -0.00300
C1126       C  0.78624599  0.18637147  0.37665658    -0.08700
C1127       C  0.76447105  0.19511300  0.39399329     0.61600
H1128       H  0.80662116  0.21883355  0.38666013     0.12300
H1129       H  0.80756747  0.13903536  0.33474202     0.12300
C1130       C  0.84954402  0.16385001  0.32606486     0.61900
F1131       F  0.76911474  0.21652043  0.40969834    -0.23300
F1132       F  0.75758702  0.17754957  0.41453868    -0.20600
F1133       F  0.74574853  0.19963100  0.37405025    -0.20300
F1134       F  0.86939919  0.16105789  0.34480919    -0.20400
F1135       F  0.85447822  0.18125985  0.30445772    -0.20700
F1136       F  0.84545135  0.14179112  0.31155720    -0.23400
C1137       C  0.97975162  0.24839780  0.35994505    -0.06200
C1138       C  0.96559340  0.26944014  0.36376186    -0.00300
C1139       C  0.97764517  0.29246279  0.36554380    -0.08800
C1140       C  0.00315665  0.29323759  0.36329374    -0.06200
C1141       C  0.01725536  0.27203815  0.35967181    -0.00300
C1142       C  0.00505267  0.24900183  0.35788408    -0.08700
C1143       C  0.01809525  0.22463042  0.35414329     0.61600
H1144       H  0.97068637  0.23092452  0.35882013     0.12300
H1145       H  0.01240593  0.31061225  0.36487869     0.12300
C1146       C  0.96399106  0.31625931  0.36977684     0.61900
F1147       F  0.03165126  0.21960026  0.37970005    -0.23300
F1148       F  0.03277463  0.22533912  0.32926026    -0.20600
F1149       F  0.00231164  0.20528333  0.34991075    -0.20300
F1150       F  0.95141548  0.31554374  0.39645147    -0.20400
F1151       F  0.94816515  0.31979556  0.34592368    -0.20700
F1152       F  0.97926312  0.33626203  0.37108445    -0.23400
C1153       C  0.81319993  0.21858803  0.10613731    -0.06200
C1154       C  0.83752078  0.21232007  0.10334458    -0.00300
C1155       C  0.84359336  0.18707916  0.09955227    -0.08800
C1156       C  0.82532457  0.16931016  0.10241452    -0.06200
C1157       C  0.80116207  0.17560726  0.10708580    -0.00300
C1158       C  0.79477203  0.20099445  0.10713067    -0.08700
C1159       C  0.76886821  0.21025243  0.10851123     0.61600
H1160       H  0.80859867  0.23775104  0.10781516     0.12300
H1161       H  0.82990597  0.15010557  0.10126110     0.12300
C1162       C  0.86892622  0.17840229  0.09214866     0.61900
F1163       F  0.76736466  0.23532423  0.10462762    -0.23300
F1164       F  0.75919062  0.20494291  0.13627325    -0.20600
F1165       F  0.75513738  0.19965411  0.08579595    -0.20300
F1166       F  0.88440651  0.18318120  0.11604082    -0.20400
F1167       F  0.87695356  0.19005938  0.06654223    -0.20700
F1168       F  0.86972813  0.15350205  0.08653035    -0.23400
C1169       C  0.92552805  0.26332360  0.22132345    -0.06200
C1170       C  0.90703459  0.25374177  0.20300286    -0.00300
C1171       C  0.88756938  0.24126871  0.21688249    -0.08800
C1172       C  0.88723548  0.23943901  0.24866861    -0.06200
C1173       C  0.90515959  0.25020965  0.26693899    -0.00300
C1174       C  0.92502700  0.26185112  0.25294119    -0.08700
C1175       C  0.94590441  0.27264446  0.27105325     0.61600
H1176       H  0.94029000  0.27269683  0.21056367     0.12300
H1177       H  0.87223474  0.23064655  0.25963673     0.12300
C1178       C  0.86651179  0.23114877  0.19856694     0.61900
F1179       F  0.96518086  0.27857540  0.25295011    -0.23300
F1180       F  0.95396201  0.25587665  0.29211607    -0.20600
F1181       F  0.93868291  0.29379142  0.28542734    -0.20300
F1182       F  0.87438061  0.21254222  0.18001831    -0.20400
F1183       F  0.85632165  0.24953478  0.18128266    -0.20700
F1184       F  0.84868097  0.22169080  0.21671607    -0.23400
C1185       C  0.87803719  0.22697915  0.00393637    -0.06200
C1186       C  0.89767146  0.24049682  0.01512053    -0.00300
C1187       C  0.91708777  0.24581796  0.99569270    -0.08800
C1188       C  0.91362423  0.24209753  0.46334633    -0.06200
C1189       C  0.89481501  0.22684342  0.45315543    -0.00300
C1190       C  0.87938532  0.21604271  0.47455676    -0.08700
C1191       C  0.86015664  0.19768169  0.46539931     0.61600
H1192       H  0.86346653  0.22266122  0.01907393     0.12300
H1193       H  0.92534748  0.25014968  0.44675784     0.12300
C1194       C  0.93911703  0.25967946  0.00684093     0.61900
F1195       F  0.85289636  0.18389297  0.48976686    -0.23300
F1196       F  0.86904431  0.18178851  0.44395430    -0.20600
F1197       F  0.84024166  0.20972854  0.45378945    -0.20300
F1198       F  0.95120697  0.24586231  0.02808746    -0.20400
F1199       F  0.93225808  0.28164836  0.01958695    -0.20700
F1200       F  0.95498658  0.26463588  0.98382384    -0.23400
C1201       C  0.98950009  0.29637336  0.10363235    -0.06200
C1202       C  0.97596765  0.27457151  0.10416074    -0.00300
C1203       C  0.98854372  0.25181707  0.10131963    -0.08800
C1204       C  0.01371307  0.25215338  0.09891720    -0.06200
C1205       C  0.02739550  0.27367206  0.10094912    -0.00300
C1206       C  0.01502766  0.29639537  0.10240851    -0.08700
C1207       C  0.02845919  0.32054606  0.10342887     0.61600
H1208       H  0.97992950  0.31354025  0.10537621     0.12300
H1209       H  0.02318474  0.23498421  0.09672251     0.12300
C1210       C  0.97634616  0.22674518  0.10202435     0.61900
F1211       F  0.01290895  0.34029891  0.10452524    -0.23300
F1212       F  0.04227893  0.32295959  0.07789893    -0.20600
F1213       F  0.04313839  0.32146783  0.12876792    -0.20300
F1214       F  0.95848638  0.22529378  0.08025878    -0.20400
F1215       F  0.96669275  0.22268831  0.13013398    -0.20700
F1216       F  0.99225655  0.20779482  0.09648120    -0.23400
C1217       C  0.67952845  0.81888569  0.29859354    -0.06200
C1218       C  0.65747638  0.81122843  0.31076247    -0.00300
C1219       C  0.65445633  0.81217357  0.34259493    -0.08800
C1220       C  0.67270168  0.82299454  0.36033582    -0.06200
C1221       C  0.69335907  0.83290616  0.34739237    -0.00300
C1222       C  0.69777838  0.82917916  0.31650903    -0.08700
C1223       C  0.72135139  0.83573834  0.30145600     0.61600
H1224       H  0.68254205  0.81729486  0.27461472     0.12300
H1225       H  0.67002180  0.82566353  0.38421703     0.12300
C1226       C  0.63215422  0.80251769  0.35815284     0.61900
F1227       F  0.72964069  0.81565602  0.28567624    -0.23300
F1228       F  0.73922641  0.84247555  0.32175952    -0.20600
F1229       F  0.71754485  0.85474719  0.28154384    -0.20300
F1230       F  0.62756122  0.77889142  0.34877197    -0.20400
F1231       F  0.61256867  0.81727025  0.35154602    -0.20700
F1232       F  0.63503375  0.80201183  0.38913260    -0.23400
C1233       C  0.63503654  0.86278724  0.22713413    -0.06200
C1234       C  0.62177393  0.84705529  0.20810246    -0.00300
C1235       C  0.62195952  0.85155685  0.17668722    -0.08800
C1236       C  0.63750128  0.86979099  0.16519861    -0.06200
C1237       C  0.65300419  0.88349772  0.18410704    -0.00300
C1238       C  0.65036255  0.88111712  0.21568523    -0.08700
C1239       C  0.66523627  0.89614707  0.23771531     0.61600
H1240       H  0.63490608  0.85949634  0.25118482     0.12300
H1241       H  0.63941264  0.87154392  0.14107806     0.12300
C1242       C  0.60701966  0.83609892  0.15513279     0.61900
F1243       F  0.65201838  0.90117746  0.26321416    -0.23300
F1244       F  0.67201096  0.91823293  0.22524550    -0.20600
F1245       F  0.68563947  0.88321937  0.24598908    -0.20300
F1246       F  0.58440595  0.83191138  0.16689073    -0.20400
F1247       F  0.61834835  0.81394771  0.15035661    -0.20700
F1248       F  0.60394654  0.84768966  0.12770927    -0.23400
C1249       C  0.58950008  0.73802850  0.39571136    -0.06200
C1250       C  0.57519354  0.75581004  0.40998452    -0.00300
C1251       C  0.56001513  0.77088608  0.39198059    -0.08800
C1252       C  0.56119372  0.76881343  0.36056898    -0.06200
C1253       C  0.57741758  0.75297905  0.34619410    -0.00300
C1254       C  0.59108170  0.73639727  0.36404081    -0.08700
C1255       C  0.60795574  0.71777252  0.35012529     0.61600
H1256       H  0.60055635  0.72620696  0.40963149     0.12300
H1257       H  0.55020661  0.78084472  0.34680890     0.12300
C1258       C  0.54312523  0.78984103  0.40528600     0.61900
F1259       F  0.61921182  0.70341494  0.37171206    -0.23300
F1260       F  0.62569064  0.72953248  0.33402023    -0.20600
F1261       F  0.59503056  0.70243509  0.33115287    -0.20300
F1262       F  0.55639186  0.80939260  0.41627817    -0.20400
F1263       F  0.52982410  0.77954132  0.42814753    -0.20700
F1264       F  0.52699005  0.79885227  0.38405942    -0.23400
C1265       C  0.61077518  0.72485087  0.11102538    -0.06200
C1266       C  0.59238061  0.73741222  0.09545061    -0.00300
C1267       C  0.57499046  0.75064289  0.11204162    -0.08800
C1268       C  0.57742494  0.75180119  0.14361168    -0.06200
C1269       C  0.59676269  0.74068450  0.15882825    -0.00300
C1270       C  0.61337575  0.72633515  0.14251490    -0.08700
C1271       C  0.63395905  0.71294183  0.15819443     0.61600
H1272       H  0.62405781  0.71500966  0.09805109     0.12300
H1273       H  0.56511887  0.76281811  0.15655245     0.12300
C1274       C  0.55479531  0.76467970  0.09652763     0.61900
F1275       F  0.64580653  0.69733667  0.13875769    -0.23300
F1276       F  0.62508723  0.69913100  0.18163618    -0.20600
F1277       F  0.65062062  0.72950750  0.16938908    -0.20300
F1278       F  0.54010457  0.74851880  0.08095620    -0.20400
F1279       F  0.56420596  0.78154131  0.07673931    -0.20700
F1280       F  0.54070202  0.77726840  0.11685620    -0.23400
C1281       C  0.64071275  0.81825953  0.08517933    -0.06200
C1282       C  0.62631068  0.83052420  0.06350274    -0.00300
C1283       C  0.63184365  0.85514521  0.05675525    -0.08800
C1284       C  0.65236175  0.86582581  0.07058791    -0.06200
C1285       C  0.66775465  0.85259691  0.09026293    -0.00300
C1286       C  0.66186572  0.82818424  0.09734671    -0.08700
C1287       C  0.67821429  0.81188852  0.11634205     0.61600
H1288       H  0.63608206  0.79983853  0.09171510     0.12300
H1289       H  0.65658587  0.88473879  0.06586328     0.12300
C1290       C  0.61767646  0.86679685  0.53353190     0.61900
F1291       F  0.67179103  0.78747900  0.11415401    -0.23300
F1292       F  0.67693819  0.81856629  0.14630312    -0.20600
F1293       F  0.70169625  0.81387424  0.10652084    -0.20300
F1294       F  0.62401890  0.89127515  0.53361068    -0.20400
F1295       F  0.59346877  0.86529258  0.54041642    -0.20700
F1296       F  0.62128135  0.85776698  0.50493154    -0.23400
C1297       C  0.64023932  0.83894090  0.44456786    -0.06200
C1298       C  0.65057504  0.82360536  0.46674671    -0.00300
C1299       C  0.67370819  0.82939480  0.47856656    -0.08800
C1300       C  0.68514198  0.85052935  0.46820711    -0.06200
C1301       C  0.67550493  0.86513432  0.44479826    -0.00300
C1302       C  0.65224862  0.85956344  0.43327379    -0.08700
C1303       C  0.63984303  0.87513659  0.40944558     0.61600
H1304       H  0.62239621  0.83472925  0.43596301     0.12300
H1305       H  0.70261168  0.85508373  0.47768750     0.12300
C1306       C  0.68693337  0.81332759  0.50137135     0.61900
F1307       F  0.61555040  0.86965820  0.40678363    -0.23300
F1308       F  0.65019509  0.87117725  0.38172946    -0.20600
F1309       F  0.64180513  0.89959148  0.41705656    -0.20300
F1310       F  0.68653766  0.78920751  0.49189765    -0.20400
F1311       F  0.67904254  0.81422519  0.02518836    -0.20700
F1312       F  0.71088308  0.81998262  0.50484709    -0.23400
C1313       C  0.47843793  0.76648214  0.23581057    -0.06200
C1314       C  0.46767291  0.77894281  0.25990424    -0.00300
C1315       C  0.48272524  0.79221254  0.28013692    -0.08800
C1316       C  0.50800786  0.79258992  0.27535256    -0.06200
C1317       C  0.51876518  0.77962603  0.25156099    -0.00300
C1318       C  0.50362035  0.76643162  0.23137489    -0.08700
C1319       C  0.51397279  0.75268628  0.20482764     0.61600
H1320       H  0.46680130  0.75647752  0.22040240     0.12300
H1321       H  0.51975591  0.80208812  0.29110246     0.12300
C1322       C  0.47232405  0.80441545  0.30774869     0.61900
F1323       F  0.49609467  0.74374254  0.18580121    -0.23300
F1324       F  0.52755580  0.73309855  0.21484763    -0.20600
F1325       F  0.52835128  0.76824907  0.18842752    -0.20300
F1326       F  0.46040580  0.78718729  0.32475676    -0.20400
F1327       F  0.45630714  0.82253473  0.29925616    -0.20700
F1328       F  0.49007437  0.81495237  0.32567120    -0.23400
C1329       C  0.30780595  0.82057048  0.22029473    -0.06200
C1330       C  0.32791763  0.80907646  0.20740018    -0.00300
C1331       C  0.32896539  0.80651783  0.17564794    -0.08800
C1332       C  0.31211974  0.81926394  0.15804211    -0.06200
C1333       C  0.29444062  0.83397203  0.17122783    -0.00300
C1334       C  0.29051856  0.83259911  0.20249253    -0.08700
C1335       C  0.26753299  0.84226110  0.21655575     0.61600
H1336       H  0.30608785  0.82090111  0.24452931     0.12300
H1337       H  0.31410239  0.81957927  0.13382071     0.12300
C1338       C  0.34778903  0.79100397  0.16003892     0.61900
F1339       F  0.26594697  0.83578734  0.24657394    -0.23300
F1340       F  0.24788967  0.83236659  0.20149447    -0.20600
F1341       F  0.26633190  0.86742048  0.21489644    -0.20300
F1342       F  0.34994572  0.76871668  0.17436309    -0.20400
F1343       F  0.36976102  0.80291941  0.16043471    -0.20700
F1344       F  0.34150876  0.78638909  0.13031759    -0.23400
C1345       C  0.35044490  0.86137637  0.28008614    -0.06200
C1346       C  0.36578002  0.84955096  0.30082868    -0.00300
C1347       C  0.36671904  0.85843037  0.33080802    -0.08800
C1348       C  0.34985878  0.87638471  0.33983692    -0.06200
C1349       C  0.33181901  0.88519253  0.32002035    -0.00300
C1350       C  0.33379020  0.87932704  0.28906669    -0.08700
C1351       C  0.31765106  0.89031410  0.26503533     0.61600
H1352       H  0.35007750  0.85520357  0.25686537     0.12300
H1353       H  0.34910607  0.88131679  0.36345022     0.12300
C1354       C  0.38456190  0.84916125  0.35419798     0.61900
F1355       F  0.33137594  0.89773319  0.24092029    -0.23300
F1356       F  0.30517451  0.91044926  0.27527114    -0.20600
F1357       F  0.30143491  0.87284850  0.25534979    -0.20300
F1358       F  0.40094957  0.83272286  0.34257083    -0.20400
F1359       F  0.37227591  0.83795359  0.37727783    -0.20700
F1360       F  0.39739568  0.86875497  0.36584021    -0.23400
C1361       C  0.38047077  0.73934057  0.40949475    -0.06200
C1362       C  0.40132287  0.75086024  0.42058310    -0.00300
C1363       C  0.42008325  0.75713789  0.40067670    -0.08800
C1364       C  0.41602723  0.75414000  0.36965030    -0.06200
C1365       C  0.39394195  0.74537413  0.35844780    -0.00300
C1366       C  0.37637707  0.73647662  0.37852757    -0.08700
C1367       C  0.35331449  0.72428015  0.36744715     0.61600
H1368       H  0.36656613  0.73415072  0.42517630     0.12300
H1369       H  0.42940307  0.76034056  0.35386053     0.12300
C1370       C  0.44410782  0.76711284  0.41195025     0.61900
F1371       F  0.34155340  0.71244855  0.39055636    -0.23300
F1372       F  0.35865800  0.70707363  0.34566795    -0.20600
F1373       F  0.33772157  0.74148517  0.35547569    -0.20300
F1374       F  0.45273249  0.75279872  0.43533576    -0.20400
F1375       F  0.44144148  0.79090834  0.42187316    -0.20700
F1376       F  0.46120221  0.76705238  0.38950027    -0.23400
C1377       C  0.41470722  0.76643715  0.15158448    -0.06200
C1378       C  0.40248743  0.74953275  0.16976813    -0.00300
C1379       C  0.38865806  0.73075328  0.15559961    -0.08800
C1380       C  0.38507776  0.73176550  0.12413054    -0.06200
C1381       C  0.39563225  0.75008537  0.10666735    -0.00300
C1382       C  0.41146343  0.76717037  0.12030163    -0.08700
C1383       C  0.42419548  0.78678553  0.10221163     0.61600
H1384       H  0.42621389  0.77996432  0.16223638     0.12300
H1385       H  0.37347727  0.71859438  0.11291620     0.12300
C1386       C  0.37738935  0.70999189  0.17317569     0.61900
F1387       F  0.43688806  0.80295350  0.12042627    -0.23300
F1388       F  0.40764822  0.80011986  0.08571270    -0.20600
F1389       F  0.44031454  0.77605867  0.08287917    -0.20300
F1390       F  0.35959972  0.71889390  0.19175515    -0.20400
F1391       F  0.39495683  0.69838247  0.19024811    -0.20700
F1392       F  0.36701497  0.69265468  0.15434550    -0.23400
C1393       C  0.47701942  0.80039028  0.00592878    -0.06200
C1394       C  0.46661622  0.77997903  0.51690062    -0.00300
C1395       C  0.47996671  0.75856393  0.52522052    -0.08800
C1396       C  0.50514055  0.75941585  0.52443095    -0.06200
C1397       C  0.51766144  0.77992539  0.51444860    -0.00300
C1398       C  0.50246076  0.80200872  0.00457300    -0.08700
C1399       C  0.51401182  0.82562481  0.99415760     0.61600
H1400       H  0.46609601  0.81594000  0.99942493     0.12300
H1401       H  0.51544631  0.74322863  0.53001743     0.12300
C1402       C  0.46853664  0.73408151  0.53337301     0.61900
F1403       F  0.52721711  0.82134533  0.96852094    -0.23300
F1404       F  0.52899717  0.83474706  0.01656768    -0.20600
F1405       F  0.49701544  0.84338379  0.98744925    -0.20300
F1406       F  0.45820341  0.72352374  0.50803718    -0.20400
F1407       F  0.45140832  0.73718709  0.55524109    -0.20700
F1408       F  0.48526268  0.71760584  0.54470058    -0.23400
C1409       C  0.32954204  0.81214370  0.42601145    -0.06200
C1410       C  0.32722201  0.81578355  0.45712028    -0.00300
C1411       C  0.30755090  0.82992819  0.46784890    -0.08800
C1412       C  0.29461529  0.84420463  0.44704772    -0.06200
C1413       C  0.29860579  0.84239213  0.41606895    -0.00300
C1414       C  0.31436734  0.82406044  0.40519249    -0.08700
C1415       C  0.31496422  0.81666068  0.37227177     0.61600
H1416       H  0.34334932  0.79976434  0.41813310     0.12300
H1417       H  0.28123818  0.85711209  0.45482609     0.12300
C1418       C  0.29978623  0.83002523  0.50057668     0.61900
F1419       F  0.32067337  0.83636017  0.35454254    -0.23300
F1420       F  0.29255869  0.80784906  0.36367842    -0.20600
F1421       F  0.33176238  0.79846785  0.36700626    -0.20300
F1422       F  0.31702166  0.83367179  0.01823055    -0.20400
F1423       F  0.29395989  0.80648942  0.50916175    -0.20700
F1424       F  0.27971396  0.84456276  0.50508472    -0.23400
C1425       C  0.36708720  0.85077744  0.08232442    -0.06200
C1426       C  0.36748577  0.84878559  0.05089916    -0.00300
C1427       C  0.35522522  0.86684693  0.03368253    -0.08800
C1428       C  0.33698752  0.88053600  0.04782439    -0.06200
C1429       C  0.33357982  0.87921819  0.07903215    -0.00300
C1430       C  0.35158017  0.86732611  0.09673383    -0.08700
C1431       C  0.35489081  0.87211302  0.13015908     0.61600
H1432       H  0.37806547  0.83835467  0.09556731     0.12300
H1433       H  0.32448827  0.89125552  0.03438311     0.12300
C1434       C  0.36050771  0.87107873  0.00070329     0.61900
F1435       F  0.37468182  0.85977356  0.14182936    -0.23300
F1436       F  0.33500522  0.86480791  0.14593351    -0.20600
F1437       F  0.35856067  0.89684789  0.13473501    -0.20300
F1438       F  0.35249463  0.85177175  0.98339852    -0.20400
F1439       F  0.34862163  0.89589636  0.49422589    -0.20700
F1440       F  0.35669916  0.85645854  0.48635490    -0.23400
C1441       C  0.80595834  0.31649607  0.27495478    -0.06200
C1442       C  0.79248133  0.33399525  0.29059224    -0.00300
C1443       C  0.79300546  0.33424908  0.32252566    -0.08800
C1444       C  0.80937520  0.31892053  0.33752471    -0.06200
C1445       C  0.82460629  0.30327791  0.32160426    -0.00300
C1446       C  0.82193765  0.30080031  0.29003312    -0.08700
C1447       C  0.83573432  0.28170119  0.27231128     0.61600
H1448       H  0.80487259  0.31602270  0.25060488     0.12300
H1449       H  0.81122687  0.31996383  0.36180066     0.12300
C1450       C  0.77635035  0.35028389  0.34085228     0.61900
F1451       F  0.82656816  0.27909269  0.24337593    -0.23300
F1452       F  0.83410958  0.25924113  0.28640912    -0.20600
F1453       F  0.85966350  0.28838237  0.27028647    -0.20300
F1454       F  0.77573604  0.34304232  0.37067603    -0.20400
F1455       F  0.75319991  0.34864279  0.32934473    -0.20700
F1456       F  0.78399104  0.37431199  0.33997967    -0.23400
C1457       C  0.83003105  0.35459903  0.20072304    -0.06200
C1458       C  0.80985426  0.36377279  0.18501000    -0.00300
C1459       C  0.80550660  0.35527310  0.15499585    -0.08800
C1460       C  0.82173378  0.33856756  0.14204469    -0.06200
C1461       C  0.84166054  0.32897674  0.15787738    -0.00300
C1462       C  0.84570944  0.33698946  0.18812122    -0.08700
C1463       C  0.86582118  0.32656047  0.20777077     0.61600
H1464       H  0.83274016  0.36041573  0.22380589     0.12300
H1465       H  0.81855927  0.33247351  0.11916783     0.12300
C1466       C  0.78324612  0.36251738  0.13663906     0.61900
F1467       F  0.86383177  0.33383531  0.23749302    -0.23300
F1468       F  0.88791978  0.33450890  0.19758116    -0.20600
F1469       F  0.86499608  0.30128654  0.20714496    -0.20300
F1470       F  0.77908722  0.38737338  0.13908539    -0.20400
F1471       F  0.78573974  0.35705404  0.10640226    -0.20700
F1472       F  0.76339297  0.34979585  0.14673720    -0.23400
C1473       C  0.74572824  0.43448569  0.38551342    -0.06200
C1474       C  0.73917250  0.41361841  0.40189588    -0.00300
C1475       C  0.72867381  0.39349909  0.38627017    -0.08800
C1476       C  0.72676080  0.39440143  0.35457973    -0.06200
C1477       C  0.73542318  0.41435102  0.33814920    -0.00300
C1478       C  0.74366447  0.43537303  0.35388655    -0.08700
C1479       C  0.74938435  0.45893596  0.33746438     0.61600
H1480       H  0.75311896  0.44998332  0.39770781     0.12300
H1481       H  0.71960497  0.37891470  0.34220657     0.12300
C1482       C  0.72060000  0.37067694  0.40265703     0.61900
F1483       F  0.75255295  0.47831240  0.35721198    -0.23300
F1484       F  0.73047054  0.46471440  0.31825377    -0.20600
F1485       F  0.77024457  0.45637189  0.32109010    -0.20300
F1486       F  0.71271743  0.35264448  0.38297617    -0.20400
F1487       F  0.70172772  0.37643085  0.42131507    -0.20700
F1488       F  0.73949073  0.36125203  0.41956999    -0.23400
C1489       C  0.71726347  0.38153640  0.10071406    -0.06200
C1490       C  0.72975694  0.40199280  0.08995822    -0.00300
C1491       C  0.73300719  0.42246089  0.10919952    -0.08800
C1492       C  0.72668746  0.42024197  0.13982132    -0.06200
C1493       C  0.71620788  0.39874203  0.15112365    -0.00300
C1494       C  0.70929781  0.38012699  0.13052655    -0.08700
C1495       C  0.69352551  0.35855203  0.13877444     0.61600
H1496       H  0.71354967  0.36642253  0.08551655     0.12300
H1497       H  0.73134014  0.43470464  0.15550360     0.12300
C1498       C  0.74380659  0.44609570  0.09780337     0.61900
F1499       F  0.67508057  0.35624264  0.11772706    -0.23300
F1500       F  0.68296588  0.36131474  0.16658341    -0.20600
F1501       F  0.70712560  0.33738161  0.13869994    -0.20300
F1502       F  0.72857244  0.45608421  0.07629152    -0.20400
F1503       F  0.76607930  0.44166987  0.08525628    -0.20700
F1504       F  0.74680956  0.46312548  0.12063011    -0.23400
C1505       C  0.85703357  0.37271932  0.02394509    -0.06200
C1506       C  0.84106321  0.38405867  0.04403908    -0.00300
C1507       C  0.84615198  0.38264746  0.07524629    -0.08800
C1508       C  0.86358948  0.36564804  0.08544265    -0.06200
C1509       C  0.87690361  0.35130030  0.06519027    -0.00300
C1510       C  0.87534225  0.35676231  0.03416370    -0.08700
C1511       C  0.89329407  0.34615804  0.01227985     0.61600
H1512       H  0.85395516  0.37490840  0.99999095     0.12300
H1513       H  0.86587561  0.36243066  0.10933751     0.12300
C1514       C  0.83450430  0.40017845  0.09718375     0.61900
F1515       F  0.89034624  0.35585194  0.98371913    -0.23300
F1516       F  0.89076227  0.32116689  0.01035007    -0.20600
F1517       F  0.91641495  0.35146911  0.02223619    -0.20300
F1518       F  0.84186569  0.39574889  0.12654263    -0.20400
F1519       F  0.80976800  0.39847020  0.09581238    -0.20700
F1520       F  0.84103260  0.42379383  0.08984293    -0.23400
C1521       C  0.82813114  0.32604527  0.46428938    -0.06200
C1522       C  0.82027772  0.34729735  0.44940673    -0.00300
C1523       C  0.83378996  0.35562777  0.42412714    -0.08800
C1524       C  0.85254452  0.34081638  0.41312288    -0.06200
C1525       C  0.85900504  0.31868947  0.42681463    -0.00300
C1526       C  0.84777137  0.31219362  0.45430088    -0.08700
C1527       C  0.85520935  0.29009433  0.47288155     0.61600
H1528       H  0.81884320  0.32011135  0.48429175     0.12300
H1529       H  0.86154607  0.34586162  0.39257873     0.12300
C1530       C  0.82905303  0.37991226  0.40847017     0.61900
F1531       F  0.85048611  0.29383196  0.50306891    -0.23300
F1532       F  0.87963430  0.28575966  0.47039229    -0.20600
F1533       F  0.84247432  0.26973734  0.46332273    -0.20300
F1534       F  0.82959578  0.39892268  0.91921529    -0.20400
F1535       F  0.80572995  0.38060037  0.39728576    -0.20700
F1536       F  0.84434915  0.38370743  0.38451991    -0.23400
C1537       C  0.69991278  0.69437064  0.25912348    -0.06200
C1538       C  0.69298197  0.66972603  0.25652798    -0.00300
C1539       C  0.66775885  0.66438822  0.25573156    -0.08800
C1540       C  0.65097505  0.68398139  0.25500900    -0.06200
C1541       C  0.65806813  0.70868570  0.25668166    -0.00300
C1542       C  0.68322992  0.71380892  0.26016996    -0.08700
C1543       C  0.69306746  0.73950734  0.26544412     0.61600
H1544       H  0.71894844  0.69847998  0.26073401     0.12300
H1545       H  0.63190652  0.68004633  0.25313000     0.12300
C1546       C  0.65817067  0.63834036  0.25601881     0.61900
F1547       F  0.71749473  0.73946112  0.27219700    -0.23300
F1548       F  0.68151279  0.75023671  0.28953802    -0.20600
F1549       F  0.68981118  0.75351277  0.23985612    -0.20300
F1550       F  0.66560120  0.62666558  0.28209098    -0.20400
F1551       F  0.66643699  0.62568937  0.23127918    -0.20700
F1552       F  0.63323010  0.63758198  0.25512361    -0.23400
C1553       C  0.77895203  0.51471274  0.24274129    -0.06200
C1554       C  0.75891685  0.52756630  0.25404037    -0.00300
C1555       C  0.73813900  0.51372672  0.26186703    -0.08800
C1556       C  0.73773685  0.48837440  0.25630056    -0.06200
C1557       C  0.75750270  0.47531814  0.24479444    -0.00300
C1558       C  0.77878211  0.48887261  0.23827364    -0.08700
C1559       C  0.80113385  0.47644917  0.22622544     0.61600
H1560       H  0.79471755  0.52521322  0.23678866     0.12300
H1561       H  0.72145094  0.47843799  0.26138219     0.12300
C1562       C  0.71621066  0.52515584  0.27670752     0.61900
F1563       F  0.81919023  0.49306567  0.21989437    -0.23300
F1564       F  0.79546040  0.46405687  0.19991932    -0.20600
F1565       F  0.81013748  0.46022695  0.24735958    -0.20300
F1566       F  0.70302142  0.53842969  0.25582338    -0.20400
F1567       F  0.72349224  0.54018002  0.30017893    -0.20700
F1568       F  0.70097892  0.50767787  0.28856351    -0.23400
C1569       C  0.81232374  0.68186573  0.14810403    -0.06200
C1570       C  0.82412263  0.70166404  0.16181160    -0.00300
C1571       C  0.82088334  0.70613416  0.19283570    -0.08800
C1572       C  0.80857892  0.68869911  0.20994629    -0.06200
C1573       C  0.79853885  0.66747322  0.19689681    -0.00300
C1574       C  0.79969680  0.66441320  0.16506797    -0.08700
C1575       C  0.78824599  0.64281908  0.14877433     0.61600
H1576       H  0.81456469  0.67920419  0.12415355     0.12300
H1577       H  0.80735287  0.69151521  0.23402866     0.12300
C1578       C  0.83049767  0.72880999  0.20870437     0.61900
F1579       F  0.78883280  0.64551680  0.11782230    -0.23300
F1580       F  0.76439665  0.64071019  0.15690118    -0.20600
F1581       F  0.80048106  0.62156122  0.15593552    -0.20300
F1582       F  0.83489762  0.74769000  0.18884857    -0.20400
F1583       F  0.85161393  0.72313086  0.22383547    -0.20700
F1584       F  0.81385018  0.73717599  0.22927979    -0.23400
C1585       C  0.84813224  0.64179007  0.28044730    -0.06200
C1586       C  0.83255633  0.62795879  0.29840278    -0.00300
C1587       C  0.83796742  0.62582039  0.32950766    -0.08800
C1588       C  0.85584247  0.64130970  0.34250252    -0.06200
C1589       C  0.86934539  0.65763210  0.32481081    -0.00300
C1590       C  0.86703070  0.65584459  0.29308904    -0.08700
C1591       C  0.88327589  0.66972285  0.27197490     0.61600
H1592       H  0.84465506  0.64284084  0.25642405     0.12300
H1593       H  0.85819368  0.64189679  0.36671072     0.12300
C1594       C  0.82590380  0.60621520  0.34815268     0.61900
F1595       F  0.89122339  0.65416511  0.24960686    -0.23300
F1596       F  0.90337881  0.67917007  0.28660545    -0.20600
F1597       F  0.87048859  0.68863137  0.25892636    -0.20300
F1598       F  0.83244617  0.58353917  0.33716281    -0.20400
F1599       F  0.80115140  0.60808384  0.34643494    -0.20700
F1600       F  0.83282811  0.60755293  0.37812395    -0.23400
C1601       C  0.67123024  0.66798040  0.48419298    -0.06200
C1602       C  0.68682178  0.66811848  0.50941862    -0.00300
C1603       C  0.68517213  0.68935723  0.02991661    -0.08800
C1604       C  0.66770828  0.70767457  0.02571256    -0.06200
C1605       C  0.65123104  0.70429498  0.50227005    -0.00300
C1606       C  0.65352196  0.68608758  0.48004768    -0.08700
C1607       C  0.63829324  0.68675401  0.45150905     0.61600
H1608       H  0.67367585  0.65405514  0.46712848     0.12300
H1609       H  0.66677831  0.72279574  0.04144155     0.12300
C1610       C  0.70190826  0.69012807  0.05718186     0.61900
F1611       F  0.64404214  0.66789438  0.43206503    -0.23300
F1612       F  0.63571226  0.70659776  0.93804051    -0.20600
F1613       F  0.61416314  0.68473352  0.45847556    -0.20300
F1614       F  0.72531169  0.69441415  0.04829033    -0.20400
F1615       F  0.69881496  0.66403585  0.57395308    -0.20700
F1616       F  0.69316250  0.70427403  0.58007729    -0.23400
C1617       C  0.71108490  0.63053105  0.39471901    -0.06200
C1618       C  0.71713386  0.60960744  0.41134051    -0.00300
C1619       C  0.72483260  0.58829064  0.39568341    -0.08800
C1620       C  0.72814999  0.58965312  0.36424824    -0.06200
C1621       C  0.72479572  0.61158820  0.34844520    -0.00300
C1622       C  0.71517093  0.63217898  0.36372591    -0.08700
C1623       C  0.70951634  0.65615592  0.34787892     0.61600
H1624       H  0.70466569  0.64645712  0.40670998     0.12300
H1625       H  0.73503616  0.57403179  0.35207286     0.12300
C1626       C  0.73107620  0.56470231  0.41193166     0.61900
F1627       F  0.69624714  0.67178201  0.36578708    -0.23300
F1628       F  0.69613050  0.65165447  0.32210832    -0.20600
F1629       F  0.73062299  0.66807190  0.34057961    -0.20300
F1630       F  0.71136533  0.55661872  0.42787564    -0.20400
F1631       F  0.75031486  0.56862697  0.43137058    -0.20700
F1632       F  0.73751008  0.54628821  0.39217034    -0.23400
C1633       C  0.72036407  0.60693160  0.11258990    -0.06200
C1634       C  0.73648738  0.59162143  0.09716372    -0.00300
C1635       C  0.75047219  0.57447638  0.11390089    -0.08800
C1636       C  0.74845243  0.57422221  0.14531600    -0.06200
C1637       C  0.73437408  0.59126668  0.16097570    -0.00300
C1638       C  0.71932841  0.60742764  0.14433666    -0.08700
C1639       C  0.70304705  0.62578131  0.15972765     0.61600
H1640       H  0.70954733  0.61964737  0.09958660     0.12300
H1641       H  0.75943915  0.56159396  0.15824134     0.12300
C1642       C  0.76857933  0.55722050  0.09951185     0.61900
F1643       F  0.69050038  0.64008834  0.13921722    -0.23300
F1644       F  0.71654665  0.64122446  0.17794807    -0.20600
F1645       F  0.68641194  0.61345142  0.17691629    -0.20300
F1646       F  0.78836185  0.57034879  0.08996214    -0.20400
F1647       F  0.75818572  0.54509916  0.07538877    -0.20700
F1648       F  0.77680939  0.53963742  0.11950979    -0.23400
C1649       C  0.77831569  0.52067811  0.48673435    -0.06200
C1650       C  0.75670975  0.53043931  0.49802044    -0.00300
C1651       C  0.73953362  0.51551536  0.01258114    -0.08800
C1652       C  0.74547421  0.49068524  0.01370488    -0.06200
C1653       C  0.76534043  0.47944495  0.49832511    -0.00300
C1654       C  0.78271805  0.49532921  0.48593942    -0.08700
C1655       C  0.80516910  0.48568336  0.47074795     0.61600
H1656       H  0.79163537  0.53307816  0.47781514     0.12300
H1657       H  0.73272753  0.47783359  0.02294891     0.12300
C1658       C  0.71463518  0.52313642  0.02349705     0.61900
F1659       F  0.81890771  0.50430987  0.45873091    -0.23300
F1660       F  0.79865263  0.47007823  0.44750659    -0.20600
F1661       F  0.81936974  0.47327978  0.49142121    -0.20300
F1662       F  0.70172953  0.53355979  0.00000889    -0.20400
F1663       F  0.71660325  0.53954534  0.04706866    -0.20700
F1664       F  0.70133988  0.50347179  0.03374098    -0.23400
C1665       C  0.83014448  0.64531852  0.45579060    -0.06200
C1666       C  0.80918926  0.63773534  0.44053794    -0.00300
C1667       C  0.80285986  0.64903785  0.41269748    -0.08800
C1668       C  0.81690499  0.66842079  0.40241280    -0.06200
C1669       C  0.83707984  0.67708552  0.41844474    -0.00300
C1670       C  0.84393437  0.66527152  0.44588769    -0.08700
C1671       C  0.86479765  0.67396251  0.46577873     0.61600
H1672       H  0.83449040  0.63682711  0.47715118     0.12300
H1673       H  0.81166575  0.67728697  0.38158711     0.12300
C1674       C  0.78006963  0.64294835  0.39482421     0.61900
F1675       F  0.86743051  0.65910921  0.99270551    -0.23300
F1676       F  0.86221657  0.69859783  0.47208398    -0.20600
F1677       F  0.88645018  0.66987751  0.45155639    -0.20300
F1678       F  0.76102082  0.65644155  0.40581222    -0.20400
F1679       F  0.77486134  0.61827060  0.39661824    -0.20700
F1680       F  0.78250678  0.64879509  0.36472048    -0.23400
C1681       C  0.82374220  0.65235068  0.06032837    -0.06200
C1682       C  0.80854783  0.66449556  0.03934570    -0.00300
C1683       C  0.81588526  0.68758891  0.02833059    -0.08800
C1684       C  0.83784992  0.69736875  0.03875687    -0.06200
C1685       C  0.85205074  0.68624823  0.06159190    -0.00300
C1686       C  0.84520620  0.66281539  0.07185467    -0.08700
C1687       C  0.86026330  0.64868628  0.09465336     0.61600
H1688       H  0.81856625  0.63441501  0.06816044     0.12300
H1689       H  0.84344960  0.71484098  0.02990236     0.12300
C1690       C  0.80091008  0.70147960  0.50840406     0.61900
F1691       F  0.85815447  0.65906240  0.12286395    -0.23300
F1692       F  0.88418688  0.64886566  0.08625786    -0.20600
F1693       F  0.85300706  0.62453094  0.09660498    -0.20300
F1694       F  0.80951078  0.72502216  0.50455927    -0.20400
F1695       F  0.77801817  0.70334878  0.52021356    -0.20700
F1696       F  0.79973966  0.69061811  0.48032438    -0.23400
C1697       C  0.17661781  0.69522993  0.28376053    -0.06200
C1698       C  0.18832259  0.67547899  0.29787144    -0.00300
C1699       C  0.18822233  0.67377085  0.32981522    -0.08800
C1700       C  0.17455589  0.69075371  0.34608149    -0.06200
C1701       C  0.16061168  0.70854438  0.33146143    -0.00300
C1702       C  0.16257977  0.71180266  0.30002026    -0.08700
C1703       C  0.14947826  0.73223730  0.28348473     0.61600
H1704       H  0.17714864  0.69673259  0.25948135     0.12300
H1705       H  0.17307008  0.68895335  0.37026549     0.12300
C1706       C  0.20174077  0.65393941  0.34692363     0.61900
F1707       F  0.15813397  0.73533389  0.25464656    -0.23300
F1708       F  0.15251220  0.75407293  0.29882090    -0.20600
F1709       F  0.12521610  0.72688644  0.28122962    -0.20300
F1710       F  0.22508484  0.65232787  0.33659924    -0.20400
F1711       F  0.19017831  0.63173306  0.34309508    -0.20700
F1712       F  0.20292568  0.65882091  0.37749549    -0.23400
C1713       C  0.13779404  0.64960386  0.21613858    -0.06200
C1714       C  0.15363041  0.63646999  0.19767862    -0.00300
C1715       C  0.14767726  0.63369141  0.16679260    -0.08800
C1716       C  0.12828094  0.64746878  0.15454758    -0.06200
C1717       C  0.11475661  0.66359307  0.17250526    -0.00300
C1718       C  0.11797583  0.66251053  0.20410699    -0.08700
C1719       C  0.10196922  0.67651434  0.22541280     0.61600
H1720       H  0.14171158  0.65101249  0.24004796     0.12300
H1721       H  0.12537312  0.64769239  0.13041831     0.12300
C1722       C  0.16188430  0.61643017  0.14705300     0.61900
F1723       F  0.09688160  0.66225040  0.25022356    -0.23300
F1724       F  0.08028782  0.68287700  0.21184431    -0.20600
F1725       F  0.11370706  0.69746128  0.23486055    -0.20300
F1726       F  0.15131973  0.61386854  0.11886256    -0.20400
F1727       F  0.16279722  0.59360010  0.16033721    -0.20700
F1728       F  0.18508946  0.62499488  0.14349597    -0.23400
C1729       C  0.28896363  0.69639174  0.24007952    -0.06200
C1730       C  0.29272586  0.67235608  0.25023028    -0.00300
C1731       C  0.31468307  0.66709347  0.26587521    -0.08800
C1732       C  0.33212519  0.68586689  0.26972425    -0.06200
C1733       C  0.32812524  0.70997758  0.25984667    -0.00300
C1734       C  0.30584728  0.71533509  0.24491466    -0.08700
C1735       C  0.29951135  0.74087110  0.23382597     0.61600
H1736       H  0.27223042  0.70040559  0.22836704     0.12300
H1737       H  0.34890944  0.68197371  0.28140255     0.12300
C1738       C  0.31931329  0.64230713  0.28005232     0.61900
F1739       F  0.27851369  0.74112520  0.21669374    -0.23300
F1740       F  0.31779157  0.74977962  0.21608145    -0.20600
F1741       F  0.29607681  0.75627045  0.25812105    -0.20300
F1742       F  0.32134881  0.62461856  0.25799729    -0.20400
F1743       F  0.30051173  0.63650001  0.29879287    -0.20700
F1744       F  0.34031799  0.64206569  0.29717774    -0.23400
C1745       C  0.18287849  0.64963454  0.08115591    -0.06200
C1746       C  0.17325396  0.63792731  0.05540780    -0.00300
C1747       C  0.14934531  0.64344202  0.04659527    -0.08800
C1748       C  0.13783983  0.66356176  0.06020287    -0.06200
C1749       C  0.14912049  0.67775649  0.08298879    -0.00300
C1750       C  0.17173306  0.66975322  0.09475949    -0.08700
C1751       C  0.18507750  0.68266380  0.12042392     0.61600
H1752       H  0.20044287  0.64398033  0.08935330     0.12300
H1753       H  0.11987460  0.66846526  0.05264596     0.12300
C1754       C  0.13587002  0.62823414  0.02337078     0.61900
F1755       F  0.20768027  0.67277232  0.12590190    -0.23300
F1756       F  0.17226913  0.68083931  0.14679096    -0.20600
F1757       F  0.18832869  0.70693058  0.11323629    -0.20300
F1758       F  0.13993343  0.60365005  0.02867888    -0.20400
F1759       F  0.14344837  0.63410475  0.99481700    -0.20700
F1760       F  0.11126195  0.63219455  0.02468262    -0.23400
C1761       C  0.16069767  0.65452127  0.43187341    -0.06200
C1762       C  0.17388639  0.66511519  0.45605044    -0.00300
C1763       C  0.16445416  0.68654214  0.46980209    -0.08800
C1764       C  0.14297405  0.69654910  0.45829140    -0.06200
C1765       C  0.13131045  0.68755068  0.43218885    -0.00300
C1766       C  0.13952911  0.66522416  0.41976656    -0.08700
C1767       C  0.12608417  0.65244874  0.39426526     0.61600
H1768       H  0.16724340  0.63766311  0.42204305     0.12300
H1769       H  0.13586952  0.71287804  0.46879087     0.12300
C1770       C  0.17842221  0.70051340  0.99375350     0.61900
F1771       F  0.12935392  0.66483366  0.36757807    -0.23300
F1772       F  0.10175297  0.65145641  0.40063240    -0.20600
F1773       F  0.13407112  0.62869665  0.39030186    -0.20300
F1774       F  0.20149040  0.70616431  0.98462299    -0.20400
F1775       F  0.17941275  0.68662618  0.01963818    -0.20700
F1776       F  0.16714342  0.72231099  0.00090266    -0.23400
C1777       C  0.31924856  0.67120911  0.49722246    -0.06200
C1778       C  0.29556635  0.67838815  0.48976438    -0.00300
C1779       C  0.29052829  0.70368934  0.48642550    -0.08800
C1780       C  0.30855065  0.72066415  0.49426432    -0.06200
C1781       C  0.33161806  0.71345611  0.50426650    -0.00300
C1782       C  0.33752573  0.68812868  0.50418310    -0.08700
C1783       C  0.35537394  0.67492510  0.03454229     0.61600
H1784       H  0.31980593  0.64670578  0.01165720     0.12300
H1785       H  0.30442551  0.73997296  0.49306623     0.12300
C1786       C  0.26636084  0.71320032  0.47518608     0.61900
F1787       F  0.35314356  0.65080139  0.04342073    -0.23300
F1788       F  0.35569839  0.68922636  0.06026897    -0.20600
F1789       F  0.37901474  0.68789341  0.49127385    -0.20300
F1790       F  0.25184002  0.70721404  0.98335120    -0.20400
F1791       F  0.25914633  0.70043237  0.44973251    -0.20700
F1792       F  0.26747886  0.73769953  0.46751596    -0.23400
C1793       C  0.23947442  0.57829770  0.38567514    -0.06200
C1794       C  0.25152430  0.59778182  0.39993547    -0.00300
C1795       C  0.26411797  0.61503435  0.38215179    -0.08800
C1796       C  0.26224897  0.61322334  0.35058484    -0.06200
C1797       C  0.24837839  0.59497425  0.33647347    -0.00300
C1798       C  0.23786167  0.57639859  0.35422801    -0.08700
C1799       C  0.22395889  0.55514186  0.34047097     0.61600
H1800       H  0.23036292  0.56492588  0.39943995     0.12300
H1801       H  0.27011961  0.62721430  0.33672270     0.12300
C1802       C  0.27828584  0.63608019  0.39605966     0.61900
F1803       F  0.22212570  0.53589432  0.36049535    -0.23300
F1804       F  0.23548742  0.54649680  0.31513772    -0.20600
F1805       F  0.20092842  0.56268440  0.33279177    -0.20300
F1806       F  0.29705110  0.62701957  0.41347833    -0.20400
F1807       F  0.26331191  0.65018235  0.41370847    -0.20700
F1808       F  0.28816023  0.65112947  0.37442619    -0.23400
C1809       C  0.25421973  0.59438054  0.09973560    -0.06200
C1810       C  0.26634744  0.61390538  0.08607705    -0.00300
C1811       C  0.27699398  0.63221237  0.10458838    -0.08800
C1812       C  0.27324245  0.63141424  0.13585619    -0.06200
C1813       C  0.25967268  0.61277986  0.14920715    -0.00300
C1814       C  0.25067908  0.59344113  0.13111149    -0.08700
C1815       C  0.23616792  0.57269400  0.14455077     0.61600
H1816       H  0.24612173  0.58094530  0.08556101     0.12300
H1817       H  0.28013443  0.64596026  0.15006205     0.12300
C1818       C  0.29213340  0.65267619  0.09162091     0.61900
F1819       F  0.22773208  0.55664413  0.12274553    -0.23300
F1820       F  0.21650295  0.58197197  0.15962290    -0.20600
F1821       F  0.25048775  0.55964512  0.16446542    -0.20300
F1822       F  0.27748975  0.66986107  0.07784319    -0.20400
F1823       F  0.30797486  0.64320163  0.07086353    -0.20700
F1824       F  0.30558106  0.66442370  0.11375069    -0.23400
C1825       C  0.19513458  0.33611239  0.16610968    -0.06200
C1826       C  0.18960421  0.33454892  0.19674555    -0.00300
C1827       C  0.17577339  0.31468656  0.20716856    -0.08800
C1828       C  0.16428691  0.29957737  0.18584727    -0.06200
C1829       C  0.16754742  0.30275005  0.15474077    -0.00300
C1830       C  0.18525051  0.31957236  0.14494571    -0.08700
C1831       C  0.19343227  0.32039093  0.11264337     0.61600
H1832       H  0.20698594  0.35064408  0.15887158     0.12300
H1833       H  0.15183002  0.28567551  0.19332554     0.12300
C1834       C  0.17277066  0.30977642  0.24049367     0.61900
F1835       F  0.21182009  0.33714164  0.10853528    -0.23300
F1836       F  0.17443304  0.32691031  0.09433030    -0.20600
F1837       F  0.20180147  0.29760564  0.10419609    -0.20300
F1838       F  0.16286281  0.32986839  0.25439434    -0.20400
F1839       F  0.19503586  0.30494889  0.25341078    -0.20700
F1840       F  0.15794428  0.28989477  0.24567576    -0.23400
C1841       C  0.13221015  0.37043720  0.26804494    -0.06200
C1842       C  0.14747898  0.38356020  0.28765133    -0.00300
C1843       C  0.14230363  0.38368481  0.31869927    -0.08800
C1844       C  0.12479708  0.36729416  0.32971876    -0.06200
C1845       C  0.11253913  0.35085995  0.31048353    -0.00300
C1846       C  0.11493465  0.35376874  0.27893349    -0.08700
C1847       C  0.10010410  0.33861147  0.25684377     0.61600
H1848       H  0.13594296  0.37100439  0.24417638     0.12300
H1849       H  0.12233272  0.36559358  0.35376217     0.12300
C1850       C  0.15518211  0.40126017  0.33978105     0.61900
F1851       F  0.10228753  0.34715896  0.22770292    -0.23300
F1852       F  0.07604608  0.33979570  0.26449047    -0.20600
F1853       F  0.10752780  0.31451028  0.25720228    -0.20300
F1854       F  0.14924921  0.42492492  0.33177012    -0.20400
F1855       F  0.17982137  0.39847687  0.33782577    -0.20700
F1856       F  0.14863802  0.39771934  0.36941328    -0.23400
C1857       C  0.19920295  0.49466983  0.24865061    -0.06200
C1858       C  0.22089543  0.48198316  0.24379303    -0.00300
C1859       C  0.24170734  0.49575575  0.23591569    -0.08800
C1860       C  0.24007097  0.52136012  0.23415600    -0.06200
C1861       C  0.21882684  0.53430180  0.24033335    -0.00300
C1862       C  0.19775899  0.52059790  0.24740893    -0.08700
C1863       C  0.17393176  0.53297370  0.25413421     0.61600
H1864       H  0.18336819  0.48401847  0.25394483     0.12300
H1865       H  0.25595825  0.53169276  0.22830839     0.12300
C1866       C  0.26579469  0.48388239  0.22867198     0.61900
F1867       F  0.15605890  0.51624055  0.26082136    -0.23300
F1868       F  0.16629091  0.54623959  0.22935074    -0.20600
F1869       F  0.17660609  0.54838009  0.27863189    -0.20300
F1870       F  0.26271641  0.46653068  0.20638086    -0.20400
F1871       F  0.27546491  0.47316137  0.25422584    -0.20700
F1872       F  0.28249254  0.50061260  0.21836048    -0.23400
C1873       C  0.15643990  0.36971039  0.44101169    -0.06200
C1874       C  0.17893199  0.37469439  0.42822765    -0.00300
C1875       C  0.18528459  0.36198500  0.40139103    -0.08800
C1876       C  0.17028557  0.34314168  0.39063543    -0.06200
C1877       C  0.14853988  0.33682399  0.40450153    -0.00300
C1878       C  0.14097398  0.35117097  0.42966731    -0.08700
C1879       C  0.11703819  0.34706770  0.44518708     0.61600
H1880       H  0.15171598  0.37942107  0.46134275     0.12300
H1881       H  0.17590108  0.33291692  0.37106011     0.12300
C1882       C  0.20835093  0.36704069  0.38430134     0.61900
F1883       F  0.11370205  0.36308077  0.46895221    -0.23300
F1884       F  0.11610512  0.32357433  0.45656433    -0.20600
F1885       F  0.09827469  0.35072270  0.42494633    -0.20300
F1886       F  0.22732876  0.35446783  0.39740210    -0.20400
F1887       F  0.21325726  0.39182349  0.38423484    -0.20700
F1888       F  0.20646514  0.35945395  0.35463153    -0.23400
C1889       C  0.16008617  0.35990517  0.04331918    -0.06200
C1890       C  0.17760261  0.34802387  0.02563894    -0.00300
C1891       C  0.17366188  0.32343794  0.01683961    -0.08800
C1892       C  0.15281797  0.31171597  0.02688867    -0.06200
C1893       C  0.13694476  0.32254136  0.04776302    -0.00300
C1894       C  0.13996635  0.34753784  0.05492040    -0.08700
C1895       C  0.12311708  0.36088135  0.07594436     0.61600
H1896       H  0.16267513  0.37895821  0.04910384     0.12300
H1897       H  0.14987446  0.29297946  0.01997548     0.12300
C1898       C  0.19162466  0.30890701  0.99824223     0.61900
F1899       F  0.12617870  0.38595806  0.07437613    -0.23300
F1900       F  0.12764322  0.35373100  0.10529625    -0.20600
F1901       F  0.09942726  0.35571321  0.06825665    -0.20300
F1902       F  0.21439974  0.31061227  0.01111375    -0.20400
F1903       F  0.18627307  0.32743156  0.46468855    -0.20700
F1904       F  0.17460098  0.29194747  0.48417010    -0.23400
C1905       C  0.26115463  0.42369542  0.38872343    -0.06200
C1906       C  0.27152342  0.40269501  0.40183316    -0.00300
C1907       C  0.27841940  0.38306600  0.38284108    -0.08800
C1908       C  0.27098488  0.38332380  0.35251729    -0.06200
C1909       C  0.25845114  0.40320773  0.34022662    -0.00300
C1910       C  0.25469930  0.42432429  0.35789013    -0.08700
C1911       C  0.24285534  0.44677690  0.34438080     0.61600
H1912       H  0.25635717  0.43884966  0.40317340     0.12300
H1913       H  0.27441093  0.36756709  0.33835895     0.12300
C1914       C  0.29290320  0.36140685  0.39430329     0.61900
F1915       F  0.24141807  0.46570590  0.36499895    -0.23300
F1916       F  0.21978484  0.44105895  0.33457854    -0.20600
F1917       F  0.25615705  0.45482416  0.32020622    -0.20300
F1918       F  0.27763046  0.34384624  0.40572664    -0.20400
F1919       F  0.30906779  0.36870420  0.41649360    -0.20700
F1920       F  0.30603784  0.35099862  0.37129056    -0.23400
C1921       C  0.22996203  0.43812850  0.10186482    -0.06200
C1922       C  0.24481555  0.42114307  0.08725710    -0.00300
C1923       C  0.25864381  0.40442579  0.10490947    -0.08800
C1924       C  0.25594240  0.40455841  0.13642383    -0.06200
C1925       C  0.23960377  0.42020876  0.15050379    -0.00300
C1926       C  0.22698752  0.43789717  0.13323609    -0.08700
C1927       C  0.21000759  0.45613733  0.14770246     0.61600
H1928       H  0.21978125  0.45100150  0.08828923     0.12300
H1929       H  0.26552416  0.39140538  0.15026120     0.12300
C1930       C  0.27500176  0.38544732  0.09075124     0.61900
F1931       F  0.20304294  0.47430721  0.12777553    -0.23300
F1932       F  0.22122715  0.46728205  0.17201375    -0.20600
F1933       F  0.18951550  0.44426842  0.15732125    -0.20300
F1934       F  0.29340161  0.39693784  0.07555057    -0.20400
F1935       F  0.26181392  0.37098686  0.07100192    -0.20700
F1936       F  0.28546745  0.37025142  0.11206812    -0.23400
C1937       C  0.25401678  0.49529178  0.47828843    -0.06200
C1938       C  0.23322404  0.48298490  0.48741113    -0.00300
C1939       C  0.21032606  0.49659841  0.97215634    -0.08800
C1940       C  0.21110599  0.52229389  0.97506492    -0.06200
C1941       C  0.23706199  0.53460003  0.49289411    -0.00300
C1942       C  0.25662811  0.52071844  0.48099429    -0.08700
C1943       C  0.28040185  0.53201265  0.47106648     0.61600
H1944       H  0.26866599  0.48446204  0.46945683     0.12300
H1945       H  0.20138168  0.53374528  0.95920738     0.12300
C1946       C  0.19472645  0.48483008  0.94790157     0.61900
F1947       F  0.29650618  0.51465528  0.46076157    -0.23300
F1948       F  0.29142226  0.54383621  0.49509853    -0.20600
F1949       F  0.27630452  0.54827903  0.44777306    -0.20300
F1950       F  0.18325629  0.50210208  0.93008376    -0.20400
F1951       F  0.17717044  0.47060870  0.96110795    -0.20700
F1952       F  0.20874368  0.47033192  0.92954116    -0.23400
C1953       C  0.66800512  0.16899989  0.21673796    -0.06200
C1954       C  0.64733551  0.17617175  0.20042689    -0.00300
C1955       C  0.64168809  0.16394726  0.17291613    -0.08800
C1956       C  0.65771346  0.14597732  0.16233511    -0.06200
C1957       C  0.67909378  0.13999701  0.17790891    -0.00300
C1958       C  0.68390149  0.15114182  0.20634503    -0.08700
C1959       C  0.70657453  0.14624779  0.22515297     0.61600
H1960       H  0.67212857  0.17787020  0.23796225     0.12300
H1961       H  0.65426860  0.13739937  0.14074921     0.12300
C1962       C  0.61929751  0.16984049  0.15426042     0.61900
F1963       F  0.70347821  0.15270958  0.25500845    -0.23300
F1964       F  0.72549543  0.15994922  0.21425105    -0.20600
F1965       F  0.71253201  0.12170750  0.22446894    -0.20300
F1966       F  0.61839219  0.19459716  0.14825528    -0.20400
F1967       F  0.59893720  0.16294354  0.16975634    -0.20700
F1968       F  0.61900067  0.15764306  0.12692789    -0.23400
C1969       C  0.62831439  0.14216793  0.27580985    -0.06200
C1970       C  0.61659689  0.15874432  0.29505309    -0.00300
C1971       C  0.61878107  0.15520818  0.32649712    -0.08800
C1972       C  0.63550009  0.13778359  0.33760308    -0.06200
C1973       C  0.65000920  0.12381428  0.31820629    -0.00300
C1974       C  0.64478954  0.12450634  0.28696009    -0.08700
C1975       C  0.65609277  0.10615228  0.26580219     0.61600
H1976       H  0.62584950  0.14427507  0.25174420     0.12300
H1977       H  0.63876643  0.13652720  0.36160668     0.12300
C1978       C  0.60351574  0.16988595  0.34808812     0.61900
F1979       F  0.65141265  0.08276282  0.27592024    -0.23300
F1980       F  0.68066271  0.10940751  0.26483649    -0.20600
F1981       F  0.64694816  0.10825992  0.23681194    -0.20300
F1982       F  0.60471358  0.16042749  0.37690808    -0.20400
F1983       F  0.57967463  0.16922835  0.33865371    -0.20700
F1984       F  0.61120076  0.19390405  0.34909102    -0.23400
C1985       C  0.67263612  0.29444499  0.26351512    -0.06200
C1986       C  0.65260719  0.29592203  0.24414832    -0.00300
C1987       C  0.64844905  0.31784418  0.22781500    -0.08800
C1988       C  0.66443445  0.33764338  0.23181908    -0.06200
C1989       C  0.68460760  0.33604456  0.25097911    -0.00300
C1990       C  0.68849147  0.31423429  0.26771716    -0.08700
C1991       C  0.70877192  0.31194398  0.29078912     0.61600
H1992       H  0.67542686  0.27773939  0.27611589     0.12300
H1993       H  0.66188864  0.35421029  0.21890329     0.12300
C1994       C  0.62850309  0.31961576  0.20435348     0.61900
F1995       F  0.70502675  0.29256269  0.31017411    -0.23300
F1996       F  0.71010153  0.33301830  0.30794436    -0.20600
F1997       F  0.73046208  0.30811460  0.27652614    -0.20300
F1998       F  0.60622316  0.31949750  0.21790620    -0.20400
F1999       F  0.63027945  0.29995738  0.18498043    -0.20700
F2000       F  0.63015505  0.34078173  0.18746841    -0.23400
C2001       C  0.65508882  0.14804891  0.43224609    -0.06200
C2002       C  0.66824338  0.15859152  0.40852700    -0.00300
C2003       C  0.66088312  0.18170818  0.39722778    -0.08800
C2004       C  0.64089989  0.19307482  0.41013429    -0.06200
C2005       C  0.62893479  0.18350106  0.43533194    -0.00300
C2006       C  0.63565093  0.16005744  0.44601375    -0.08700
C2007       C  0.62283469  0.14761470  0.47184382     0.61600
H2008       H  0.66031260  0.13017991  0.44040154     0.12300
H2009       H  0.63515485  0.21054572  0.40123421     0.12300
C2010       C  0.67424641  0.19523186  0.37258499     0.61900
F2011       F  0.62735562  0.12329793  0.97071990    -0.23300
F2012       F  0.59818213  0.14828083  0.46695113    -0.20600
F2013       F  0.62495521  0.15737600  0.99837001    -0.20300
F2014       F  0.67124871  0.18331429  0.34533904    -0.20400
F2015       F  0.69843130  0.19661581  0.38005056    -0.20700
F2016       F  0.66604433  0.21895996  0.36889760    -0.23400
C2017       C  0.67606361  0.18603232  0.02613046    -0.06200
C2018       C  0.65991351  0.20093062  0.04182963    -0.00300
C2019       C  0.66165176  0.20251646  0.07363404    -0.08800
C2020       C  0.67799720  0.18709277  0.08877523    -0.06200
C2021       C  0.69297439  0.17087510  0.07311212    -0.00300
C2022       C  0.69292683  0.17121592  0.04117957    -0.08700
C2023       C  0.71093052  0.15668058  0.02286187     0.61600
H2024       H  0.67489981  0.18547503  0.00178484     0.12300
H2025       H  0.67858070  0.18703413  0.11315067     0.12300
C2026       C  0.64684983  0.22070068  0.09155918     0.61900
F2027       F  0.70769302  0.15782920  0.49080057    -0.23300
F2028       F  0.70522729  0.13209490  0.02342113    -0.20600
F2029       F  0.73387682  0.16015570  0.03455738    -0.20300
F2030       F  0.62300722  0.21343611  0.09209358    -0.20400
F2031       F  0.64834838  0.24361878  0.07866028    -0.20700
F2032       F  0.65510068  0.22264709  0.12098759    -0.23400
C2033       C  0.65783917  0.32998408  0.49985431    -0.06200
C2034       C  0.66322756  0.30524255  0.50422374    -0.00300
C2035       C  0.68810827  0.30047862  0.00938126    -0.08800
C2036       C  0.70658399  0.31811214  0.00718564    -0.06200
C2037       C  0.70066169  0.34093212  0.50066960    -0.00300
C2038       C  0.67584505  0.34812229  0.49866460    -0.08700
C2039       C  0.66769407  0.37463785  0.49577098     0.61600
H2040       H  0.63911077  0.33506824  0.49709262     0.12300
H2041       H  0.72520848  0.31245526  0.00936184     0.12300
C2042       C  0.69555288  0.27423122  0.01625062     0.61900
F2043       F  0.67426678  0.38748056  0.52141828    -0.23300
F2044       F  0.64292727  0.37670651  0.49248230    -0.20600
F2045       F  0.67922589  0.38778329  0.97305287    -0.20300
F2046       F  0.69331822  0.25749455  0.49099386    -0.20400
F2047       F  0.68161551  0.26490905  0.03912782    -0.20700
F2048       F  0.71937910  0.27265711  0.02567269    -0.23400
C2049       C  0.61867268  0.28416591  0.38534908    -0.06200
C2050       C  0.59874498  0.27748432  0.40270128    -0.00300
C2051       C  0.57800444  0.26777695  0.38786184    -0.08800
C2052       C  0.57860578  0.26390689  0.35647622    -0.06200
C2053       C  0.59940127  0.26846443  0.33978387    -0.00300
C2054       C  0.61964695  0.27943397  0.35432050    -0.08700
C2055       C  0.64253640  0.28574921  0.33757224     0.61600
H2056       H  0.63439210  0.29158193  0.39681114     0.12300
H2057       H  0.56341602  0.25545820  0.34509750     0.12300
C2058       C  0.55601673  0.25974564  0.40512069     0.61900
F2059       F  0.65784355  0.30037974  0.35459450    -0.23300
F2060       F  0.63669280  0.29836260  0.31161531    -0.20600
F2061       F  0.65496415  0.26463862  0.33046564    -0.20300
F2062       F  0.54687083  0.27939709  0.42086227    -0.20400
F2063       F  0.56236533  0.24125495  0.42479026    -0.20700
F2064       F  0.53791338  0.25096181  0.38632012    -0.23400
C2065       C  0.56336041  0.24118594  0.10241631    -0.06200
C2066       C  0.57866553  0.25905248  0.09014767    -0.00300
C2067       C  0.58943031  0.27636518  0.11003021    -0.08800
C2068       C  0.58739541  0.27265720  0.14140245    -0.06200
C2069       C  0.57461517  0.25279123  0.15351844    -0.00300
C2070       C  0.56055954  0.23816384  0.13357577    -0.08700
C2071       C  0.54258212  0.21929346  0.14456007     0.61600
H2072       H  0.55388379  0.22883676  0.08731445     0.12300
H2073       H  0.59650398  0.28494504  0.15676333     0.12300
C2074       C  0.60319667  0.29840416  0.09858979     0.61900
F2075       F  0.52604623  0.21313445  0.12223923    -0.23300
F2076       F  0.52971359  0.22850753  0.16855744    -0.20600
F2077       F  0.55458579  0.19825526  0.15319943    -0.20300
F2078       F  0.58845469  0.31198534  0.07967741    -0.20400
F2079       F  0.62340399  0.29087827  0.08319574    -0.20700
F2080       F  0.61071068  0.31359416  0.12181813    -0.23400
C2081       C  0.30314164  0.20101733  0.28147179    -0.06200
C2082       C  0.32084067  0.21538143  0.29583040    -0.00300
C2083       C  0.32100344  0.21720997  0.32754646    -0.08800
C2084       C  0.30748015  0.20025392  0.34379173    -0.06200
C2085       C  0.29308499  0.18265775  0.32915211    -0.00300
C2086       C  0.28922598  0.18434884  0.29763427    -0.08700
C2087       C  0.27092568  0.16866585  0.28085094     0.61600
H2088       H  0.30205751  0.20086654  0.25712728     0.12300
H2089       H  0.30906685  0.19994191  0.36809917     0.12300
C2090       C  0.33408537  0.23761826  0.34410916     0.61900
F2091       F  0.26665544  0.17719368  0.25195521    -0.23300
F2092       F  0.24933307  0.16914495  0.29593225    -0.20600
F2093       F  0.27909165  0.14486772  0.27866797    -0.20300
F2094       F  0.32788861  0.25978469  0.33127259    -0.20400
F2095       F  0.35869123  0.23453608  0.34284155    -0.20700
F2096       F  0.32778598  0.23835752  0.37413450    -0.23400
C2097       C  0.36679162  0.16294141  0.17733256    -0.06200
C2098       C  0.36382083  0.16770632  0.20784934    -0.00300
C2099       C  0.35093360  0.15030184  0.22514376    -0.08800
C2100       C  0.33641018  0.13285009  0.20988694    -0.06200
C2101       C  0.33663249  0.13043423  0.17835230    -0.00300
C2102       C  0.35485948  0.14348838  0.16274053    -0.08700
C2103       C  0.36236643  0.13922860  0.13075207     0.61600
H2104       H  0.37831915  0.17496480  0.16446621     0.12300
H2105       H  0.32358534  0.12203220  0.22235840     0.12300
C2106       C  0.35221990  0.15009178  0.25918313     0.61900
F2107       F  0.38695582  0.13507322  0.13023245    -0.23300
F2108       F  0.35748685  0.16022042  0.11479183    -0.20600
F2109       F  0.35136437  0.11951066  0.11713390    -0.20300
F2110       F  0.34316518  0.17146897  0.27058644    -0.20400
F2111       F  0.37597187  0.14760232  0.26840998    -0.20700
F2112       F  0.33917872  0.13094549  0.27119886    -0.23400
C2113       C  0.30649767  0.30799619  0.22347950    -0.06200
C2114       C  0.32930826  0.31235798  0.23675468    -0.00300
C2115       C  0.33261372  0.33422442  0.25382541    -0.08800
C2116       C  0.31311266  0.35080721  0.25643020    -0.06200
C2117       C  0.29036624  0.34587465  0.24367348    -0.00300
C2118       C  0.28692007  0.32405034  0.22713541    -0.08700
C2119       C  0.26242743  0.31747960  0.21393801     0.61600
H2120       H  0.30383922  0.29137224  0.21061508     0.12300
H2121       H  0.31525852  0.36756915  0.26919379     0.12300
C2122       C  0.35604400  0.33969978  0.27039498     0.61900
F2123       F  0.26325807  0.29650272  0.19651481    -0.23300
F2124       F  0.25401322  0.33634742  0.19600876    -0.20600
F2125       F  0.24649056  0.31341677  0.23705255    -0.20300
F2126       F  0.37433497  0.34313894  0.24999406    -0.20400
F2127       F  0.36180120  0.32048111  0.28919722    -0.20700
F2128       F  0.35444245  0.36055891  0.28796954    -0.23400
C2129       C  0.47719005  0.25142219  0.26278761    -0.06200
C2130       C  0.46345803  0.23329323  0.24817971    -0.00300
C2131       C  0.47560225  0.21248003  0.23649295    -0.08800
C2132       C  0.50113140  0.21134466  0.23877642    -0.06200
C2133       C  0.51475536  0.22998900  0.25274317    -0.00300
C2134       C  0.50234894  0.24995033  0.26599319    -0.08700
C2135       C  0.51531413  0.26981471  0.28385161     0.61600
H2136       H  0.46798561  0.26719382  0.27178247     0.12300
H2137       H  0.51073535  0.19620390  0.22877447     0.12300
C2138       C  0.46195260  0.19199686  0.22077513     0.61900
F2139       F  0.49962077  0.28294497  0.30167637    -0.23300
F2140       F  0.52625164  0.28603657  0.26449274    -0.20600
F2141       F  0.53240082  0.25945685  0.30272215    -0.20300
F2142       F  0.44773946  0.20145235  0.19782404    -0.20400
F2143       F  0.44756085  0.18001023  0.24120812    -0.20700
F2144       F  0.47737146  0.17493391  0.20835494    -0.23400
C2145       C  0.31591601  0.20371172  0.05019373    -0.06200
C2146       C  0.33900846  0.19530995  0.04260542    -0.00300
C2147       C  0.34627284  0.17152303  0.05151615    -0.08800
C2148       C  0.32910068  0.15632738  0.06477538    -0.06200
C2149       C  0.30711636  0.16541343  0.07525557    -0.00300
C2150       C  0.30008318  0.18950667  0.06758651    -0.08700
C2151       C  0.27640951  0.20064298  0.07742675     0.61600
H2152       H  0.31058899  0.22192740  0.04332792     0.12300
H2153       H  0.33387236  0.13762981  0.07006550     0.12300
C2154       C  0.37235828  0.16262667  0.05003530     0.61900
F2155       F  0.27990728  0.21264560  0.10453391    -0.23300
F2156       F  0.25871980  0.18307946  0.08068834    -0.20600
F2157       F  0.26809770  0.21730727  0.05632413    -0.20300
F2158       F  0.38672973  0.17720649  0.06827893    -0.20400
F2159       F  0.38109257  0.16335024  0.02126478    -0.20700
F2160       F  0.37477334  0.13877095  0.05993815    -0.23400
C2161       C  0.34680599  0.15135998  0.40033260    -0.06200
C2162       C  0.33121911  0.13959219  0.42058003    -0.00300
C2163       C  0.33545037  0.14225672  0.45180464    -0.08800
C2164       C  0.35264698  0.15938590  0.46174014    -0.06200
C2165       C  0.36672245  0.17294800  0.44160988    -0.00300
C2166       C  0.36434245  0.16833981  0.41041883    -0.08700
C2167       C  0.37894403  0.18262565  0.38785117     0.61600
H2168       H  0.34344240  0.14932314  0.37650221     0.12300
H2169       H  0.35299441  0.16398844  0.48467777     0.12300
C2170       C  0.32020304  0.12944169  0.47513848     0.61900
F2171       F  0.37644852  0.17320505  0.35905086    -0.23300
F2172       F  0.40308815  0.18194183  0.39585944    -0.20600
F2173       F  0.37132234  0.20661397  0.38740743    -0.20300
F2174       F  0.31317611  0.10654049  0.46505352    -0.20400
F2175       F  0.29999373  0.14332962  0.48120480    -0.20700
F2176       F  0.33313479  0.12625242  0.50163202    -0.23400
C2177       C  0.29243554  0.32263290  0.01000861    -0.06200
C2178       C  0.30207820  0.34534043  0.50842714    -0.00300
C2179       C  0.32699800  0.35028627  0.50416738    -0.08800
C2180       C  0.34297627  0.33044819  0.50205133    -0.06200
C2181       C  0.33530782  0.30610121  0.50515741    -0.00300
C2182       C  0.30848415  0.30298313  0.00734599    -0.08700
C2183       C  0.29852727  0.27725853  0.01097598     0.61600
H2184       H  0.27362740  0.31884956  0.01412342     0.12300
H2185       H  0.36160305  0.33393197  0.49652976     0.12300
C2186       C  0.33707738  0.37601588  0.50100607     0.61900
F2187       F  0.27450542  0.27716075  0.01910859    -0.23300
F2188       F  0.31134066  0.26537712  0.03338170    -0.20600
F2189       F  0.30012483  0.26156740  0.49855047    -0.20300
F2190       F  0.32705247  0.39195723  0.02320688    -0.20400
F2191       F  0.32976742  0.38601586  0.47385717    -0.20700
F2192       F  0.36203534  0.37623943  0.50185247    -0.23400
C2193       C  0.37978526  0.28466991  0.34673878    -0.06200
C2194       C  0.40053054  0.27349928  0.33527685    -0.00300
C2195       C  0.41882370  0.26549058  0.35544930    -0.08800
C2196       C  0.41431335  0.26612027  0.38638707    -0.06200
C2197       C  0.39256985  0.27507302  0.39778980    -0.00300
C2198       C  0.37542882  0.28567851  0.37788595    -0.08700
C2199       C  0.35276698  0.29801572  0.38927600     0.61600
H2200       H  0.36600806  0.29074879  0.33107015     0.12300
H2201       H  0.42729358  0.25812469  0.40182988     0.12300
C2202       C  0.44316577  0.25665496  0.34456419     0.61900
F2203       F  0.34056902  0.31010358  0.36640373    -0.23300
F2204       F  0.35883358  0.31496609  0.41121337    -0.20600
F2205       F  0.33725554  0.28097647  0.40126126    -0.20300
F2206       F  0.45211672  0.27321741  0.32412226    -0.20400
F2207       F  0.44110773  0.23394332  0.33113010    -0.20700
F2208       F  0.45973053  0.25474431  0.36799924    -0.23400
C2209       C  0.41679800  0.25716121  0.13597013    -0.06200
C2210       C  0.39561444  0.26860884  0.14557499    -0.00300
C2211       C  0.38015360  0.27984245  0.12413002    -0.08800
C2212       C  0.38577147  0.27784445  0.09344534    -0.06200
C2213       C  0.40595901  0.26466798  0.08348898    -0.00300
C2214       C  0.42222764  0.25474774  0.10517316    -0.08700
C2215       C  0.44516086  0.24163140  0.09617938     0.61600
H2216       H  0.42840543  0.24882528  0.15281068     0.12300
H2217       H  0.37355426  0.28552643  0.07680918     0.12300
C2218       C  0.35786519  0.29399072  0.13351645     0.61900
F2219       F  0.46005460  0.23718411  0.12078078    -0.23300
F2220       F  0.45783312  0.25581285  0.07605382    -0.20600
F2221       F  0.43959330  0.21936802  0.08308663    -0.20300
F2222       F  0.36416174  0.31132131  0.15490807    -0.20400
F2223       F  0.34094018  0.27830338  0.14537840    -0.20700
F2224       F  0.34718465  0.30600184  0.10942156    -0.23400
C2225       C  0.51073375  0.25941588  0.47347536    -0.06200
C2226       C  0.52292370  0.23859213  0.48391981    -0.00300
C2227       C  0.50876646  0.21954439  0.99501553    -0.08800
C2228       C  0.48330478  0.22078354  0.99300630    -0.06200
C2229       C  0.47166810  0.23989482  0.48039954    -0.00300
C2230       C  0.48545819  0.26046058  0.47112232    -0.08700
C2231       C  0.47396621  0.28363722  0.45872457     0.61600
H2232       H  0.52125495  0.27542394  0.46801348     0.12300
H2233       H  0.47253895  0.20576782  0.00121852     0.12300
C2234       C  0.52050271  0.19691366  0.00842100     0.61900
F2235       F  0.49072459  0.29861602  0.44508906    -0.23300
F2236       F  0.46351074  0.29685762  0.48166446    -0.20600
F2237       F  0.45674339  0.27770715  0.43727668    -0.20300
F2238       F  0.53426160  0.20333176  0.03334879    -0.20400
F2239       F  0.53495310  0.18584323  0.98723974    -0.20700
F2240       F  0.50362452  0.17988124  0.01748130    -0.23400
O2241       O  0.37678133  0.21140035  0.53156319    -0.82200
C2242       C  0.38777052  0.27186885  0.92895674     0.97100
O2243       O  0.36755530  0.26380133  0.93756254    -0.71300
O2244       O  0.37094492  0.21661776  0.94525987    -0.74900
Al2245     Al  0.35995890  0.24198462  0.97041661     1.49000
C2246       C  0.37826019  0.19649015  0.95532545     0.92400
O2247       O  0.43216051  0.22175688  0.48343402    -0.81100
O2248       O  0.40131258  0.27324928  0.53297191    -0.74700
Al2249     Al  0.40327704  0.21803309  0.50654097     1.90100
O2250       O  0.43546318  0.26095461  0.49180000    -0.73800
O2251       O  0.37412428  0.29191637  0.49054271    -0.73600
O2252       O  0.40485306  0.27527139  0.94758820    -0.79300
O2253       O  0.34521652  0.26653724  0.99339974    -0.77500
O2254       O  0.38891581  0.24353132  0.48926138    -1.13600
O2255       O  0.34769219  0.21710620  0.49847900    -0.72800
C2256       C  0.35535262  0.20802547  0.52290476     0.97900
C2257       C  0.44441625  0.24305367  0.98548267     0.94300
Al2258     Al  0.40301881  0.27268746  0.49082118     1.55600
O2259       O  0.39099997  0.19585197  0.97918166    -0.77400
C2260       C  0.35131605  0.28855786  0.99434204     0.98500
C2261       C  0.40928223  0.25696523  0.55052970     0.93300
O2262       O  0.41636030  0.23658063  0.54021472    -0.82800
O2263       O  0.36357742  0.22103115  0.78644730    -0.82200
C2264       C  0.39087039  0.26257870  0.67686868     0.97100
O2265       O  0.37066615  0.25312144  0.68242091    -0.71300
O2266       O  0.36862031  0.20766511  0.70142210    -0.74900
Al2267     Al  0.35722916  0.23810327  0.71690911     1.49000
C2268       C  0.37308631  0.18906334  0.71730726     0.92400
O2269       O  0.42392649  0.21742877  0.74756343    -0.81100
O2270       O  0.39331446  0.27756840  0.78121602    -0.74700
Al2271     Al  0.39292404  0.21996977  0.76587601     1.90100
O2272       O  0.42982975  0.25710702  0.74667209    -0.73800
O2273       O  0.37115420  0.29251748  0.73194522    -0.73600
O2274       O  0.40533382  0.26860576  0.69771349    -0.79300
O2275       O  0.34136821  0.26692331  0.72910478    -0.77500
O2276       O  0.38294814  0.24316025  0.74031219    -1.13600
O2277       O  0.33918366  0.22255125  0.74715956    -0.72800
C2278       C  0.34278979  0.21927660  0.77494805     0.97900
C2279       C  0.43821365  0.23548505  0.74675511     0.94300
Al2280     Al  0.39866848  0.27157603  0.73935597     1.55600
O2281       O  0.38193598  0.19185166  0.74327387    -0.77400
C2282       C  0.34878264  0.28851931  0.73185912     0.98500
C2283       C  0.39994281  0.26335347  0.80202177     0.93300
O2284       O  0.40538322  0.24154084  0.79608745    -0.82800
O2285       O  0.57893340  0.23498386  0.54318094    -0.82200
C2286       C  0.60182902  0.27751717  0.93631020     0.97100
O2287       O  0.58578110  0.28017975  0.95597332    -0.71300
O2288       O  0.55796989  0.26299209  0.99870523    -0.74900
Al2289     Al  0.59042283  0.27668318  0.99886295     1.49000
C2290       C  0.54932542  0.24231891  0.99083443     0.92400
O2291       O  0.60582583  0.19795744  0.97982901    -0.81100
O2292       O  0.64578210  0.21853357  0.49612227    -0.74700
Al2293     Al  0.59238073  0.21904097  0.50864717     1.90100
O2294       O  0.61559471  0.22468708  0.94681807    -0.73800
O2295       O  0.64831477  0.26805071  0.99691992    -0.73600
O2296       O  0.62269567  0.27087136  0.94426666    -0.79300
O2297       O  0.62096263  0.29379174  0.49878571    -0.77500
O2298       O  0.60490535  0.24825404  0.99447523    -1.13600
O2299       O  0.59289093  0.27247337  0.54116919    -0.72800
C2300       C  0.58433086  0.25490101  0.55632981     0.97900
C2301       C  0.61578235  0.20291205  0.95502312     0.94300
Al2302     Al  0.63118636  0.24634323  0.97298198     1.55600
O2303       O  0.56321430  0.22255430  0.48627127    -0.77400
C2304       C  0.64298304  0.28993015  0.00121960     0.98500
C2305       C  0.64086480  0.21127775  0.52235683     0.93300
O2306       O  0.61994880  0.21366995  0.53259496    -0.82800
O2307       O  0.61210903  0.20002111  0.70869952    -0.82200
C2308       C  0.59995584  0.26271331  0.80900614     0.97100
O2309       O  0.61921431  0.25189021  0.80173581    -0.71300
O2310       O  0.61525833  0.20452505  0.79487698    -0.74900
Al2311     Al  0.62739526  0.22952300  0.77001492     1.49000
C2312       C  0.60806376  0.18411334  0.78527356     0.92400
O2313       O  0.55556007  0.21197930  0.75376049    -0.81100
O2314       O  0.58851692  0.26247056  0.70419213    -0.74700
Al2315     Al  0.58520760  0.20753604  0.73226592     1.90100
O2316       O  0.55359814  0.25122166  0.74518013    -0.73800
O2317       O  0.61509970  0.28142006  0.74897142    -0.73600
O2318       O  0.58278938  0.26508292  0.79015316    -0.79300
O2319       O  0.64404132  0.25449262  0.74832356    -0.77500
O2320       O  0.59969966  0.23311828  0.74996267    -1.13600
O2321       O  0.64043631  0.20574419  0.74254679    -0.72800
C2322       C  0.63296588  0.19554407  0.71851685     0.97900
C2323       C  0.54325997  0.23141691  0.75152575     0.94300
Al2324     Al  0.58612246  0.26253623  0.74728687     1.55600
O2325       O  0.59565573  0.18300025  0.76124140    -0.77400
C2326       C  0.63715718  0.27646470  0.74696945     0.98500
C2327       C  0.57960653  0.24617102  0.68701628     0.93300
O2328       O  0.57333076  0.22583827  0.69804798    -0.82800
O2329       O  0.22789606  0.42478998  0.54090173    -0.82200
C2330       C  0.26700533  0.40155276  0.93525715     0.97100
O2331       O  0.26650753  0.41964808  0.95312062    -0.71300
O2332       O  0.24890387  0.44745777  0.99672229    -0.74900
Al2333     Al  0.26329249  0.41599879  0.99595676     1.49000
C2334       C  0.22843340  0.45576700  0.98947152     0.92400
O2335       O  0.18858782  0.39842209  0.97086404    -0.81100
O2336       O  0.21275516  0.35702386  0.49458900    -0.74700
Al2337     Al  0.21265660  0.41222307  0.50436287     1.90100
O2338       O  0.21642247  0.38370627  0.94178760    -0.73800
O2339       O  0.25825204  0.35776402  0.99988475    -0.73600
O2340       O  0.26252585  0.38039455  0.94499114    -0.79300
O2341       O  0.28752359  0.38560436  0.49670325    -0.77500
O2342       O  0.23610063  0.39962632  0.99091190    -1.13600
O2343       O  0.26557107  0.41202317  0.53799237    -0.72800
C2344       C  0.24775949  0.41869450  0.55353855     0.97900
C2345       C  0.19461008  0.38726799  0.94688203     0.94300
Al2346     Al  0.23687053  0.37162038  0.97150076     1.55600
O2347       O  0.21697146  0.44223896  0.48320750    -0.77400
C2348       C  0.27976575  0.36527636  0.00174493     0.98500
C2349       C  0.20050450  0.36439252  0.51661278     0.93300
O2350       O  0.20495446  0.38499099  0.52775801    -0.82800
O2351       O  0.19143234  0.37316676  0.71265264    -0.82200
C2352       C  0.24998972  0.39940628  0.80907979     0.97100
O2353       O  0.23126060  0.38659604  0.80514544    -0.71300
O2354       O  0.19025045  0.37193556  0.77902471    -0.74900
Al2355     Al  0.22370704  0.36849398  0.76993701     1.49000
C2356       C  0.17386587  0.38738488  0.77422412     0.92400
O2357       O  0.20663389  0.44002271  0.73189191    -0.81100
O2358       O  0.25418163  0.41643649  0.70225556    -0.74700
Al2359     Al  0.20082175  0.40546974  0.72485635     1.90100
O2360       O  0.24222598  0.44112159  0.75346439    -0.73800
O2361       O  0.27262863  0.38123523  0.73436165    -0.73600
O2362       O  0.26220056  0.40690549  0.78703620    -0.79300
O2363       O  0.25631712  0.35661464  0.76664045    -0.77500
O2364       O  0.22644073  0.39492225  0.74643473    -1.13600
O2365       O  0.21612648  0.34828911  0.73697638    -0.72800
C2366       C  0.20078385  0.35225848  0.71649426     0.97900
C2367       C  0.22399279  0.45214253  0.74329005     0.94300
Al2368     Al  0.25511085  0.41004650  0.74456561     1.55600
O2369       O  0.17807731  0.40557779  0.75764739    -0.77400
C2370       C  0.27270976  0.36119751  0.74810561     0.98500
C2371       C  0.23851418  0.41317997  0.68196357     0.93300
O2372       O  0.21753590  0.40664280  0.68832078    -0.82800
O2373       O  0.22417387  0.59135248  0.94280079    -0.82200
C2374       C  0.26572685  0.61979577  0.55337897     0.97100
O2375       O  0.26806822  0.60222361  0.53498679    -0.71300
O2376       O  0.25617677  0.57335327  0.48914231    -0.74900
Al2377     Al  0.26234307  0.60131898  0.99201242     1.49000
C2378       C  0.22839549  0.56034136  0.99642757     0.92400
O2379       O  0.18912407  0.61269536  0.51263496    -0.81100
O2380       O  0.20692100  0.65840898  0.99046125    -0.74700
Al2381     Al  0.20779902  0.60418104  0.97787549     1.90100
O2382       O  0.21411803  0.63192088  0.54254388    -0.73800
O2383       O  0.25461369  0.66401382  0.48900947    -0.73600
O2384       O  0.25902148  0.64051454  0.54387144    -0.79300
O2385       O  0.28194161  0.63089879  0.99206243    -0.77500
O2386       O  0.23449022  0.61666900  0.99411443    -1.13600
O2387       O  0.26196064  0.60304365  0.94951344    -0.72800
C2388       C  0.24492413  0.59612545  0.93235853     0.97900
C2389       C  0.19330213  0.62425714  0.53699381     0.94300
Al2390     Al  0.23371890  0.64675248  0.51489871     1.55600
O2391       O  0.21044923  0.57424606  0.99877032    -0.77400
C2392       C  0.27677401  0.65333151  0.98779460     0.98500
C2393       C  0.19625290  0.65198786  0.96647727     0.93300
O2394       O  0.20194149  0.63209454  0.95439604    -0.82800
O2395       O  0.19999723  0.63159156  0.78785750    -0.82200
C2396       C  0.25248730  0.61578560  0.68099105     0.97100
O2397       O  0.24222805  0.63535928  0.68896423    -0.71300
O2398       O  0.19577659  0.63422971  0.70113281    -0.74900
Al2399     Al  0.22372801  0.64488240  0.72307008     1.49000
C2400       C  0.17664857  0.62609263  0.71244253     0.92400
O2401       O  0.20383581  0.57317744  0.74091725    -0.81100
O2402       O  0.25872417  0.60325140  0.78565008    -0.74700
Al2403     Al  0.20305515  0.60351945  0.76304083     1.90100
O2404       O  0.24297834  0.56944322  0.74377315    -0.73800
O2405       O  0.27620631  0.63041451  0.74170232    -0.73600
O2406       O  0.25646814  0.59885564  0.69973999    -0.79300
O2407       O  0.25063229  0.66037774  0.74214221    -0.77500
O2408       O  0.22755258  0.61670935  0.74259042    -1.13600
O2409       O  0.20484298  0.65975612  0.75345959    -0.72800
C2410       C  0.19872801  0.65360051  0.77966999     0.97900
C2411       C  0.22239001  0.55967897  0.74078684     0.94300
Al2412     Al  0.25609813  0.60170686  0.74264097     1.55600
O2413       O  0.17744014  0.61491210  0.73719243    -0.77400
C2414       C  0.27200981  0.65287968  0.74483873     0.98500
C2415       C  0.24337710  0.59462894  0.80356651     0.93300
O2416       O  0.22230677  0.58983786  0.79451858    -0.82800
O2417       O  0.76137405  0.58833056  0.55075851    -0.82200
C2418       C  0.71886254  0.61316796  0.94378784     0.97100
O2419       O  0.71753482  0.59593597  0.96264936    -0.71300
O2420       O  0.73316115  0.56811979  0.00722041    -0.74900
Al2421     Al  0.72005205  0.60026878  0.00540353     1.49000
C2422       C  0.75326617  0.55905982  0.00058747     0.92400
O2423       O  0.79560050  0.61427188  0.98409604    -0.81100
O2424       O  0.77648042  0.65627591  0.50584836    -0.74700
Al2425     Al  0.77638929  0.60095554  0.51509457     1.90100
O2426       O  0.76921129  0.62999747  0.95306948    -0.73800
O2427       O  0.72713013  0.65877406  0.00792803    -0.73600
O2428       O  0.72336268  0.63467344  0.95297581    -0.79300
O2429       O  0.70134338  0.62767771  0.50512294    -0.77500
O2430       O  0.74788575  0.61559775  0.00147109    -1.13600
O2431       O  0.72366679  0.60124431  0.54773443    -0.72800
C2432       C  0.74139856  0.59324143  0.56312492     0.97900
C2433       C  0.79059576  0.62493075  0.95938070     0.94300
Al2434     Al  0.74870132  0.64330775  0.98134317     1.55600
O2435       O  0.77161536  0.57132557  0.49334056    -0.77400
C2436       C  0.70550275  0.65171599  0.00862647     0.98500
C2437       C  0.78889055  0.64896043  0.52819258     0.93300
O2438       O  0.78470812  0.62818706  0.53892646    -0.82800
O2439       O  0.78659438  0.62874291  0.71018164    -0.82200
C2440       C  0.73323846  0.61227607  0.81627637     0.97100
O2441       O  0.74472573  0.63143038  0.80929390    -0.71300
O2442       O  0.79111272  0.63085548  0.79574338    -0.74900
Al2443     Al  0.76274591  0.64190560  0.77501607     1.49000
C2444       C  0.80990170  0.62199468  0.78437667     0.92400
O2445       O  0.78014949  0.56922273  0.75383921    -0.81100
O2446       O  0.72609272  0.60291278  0.71094671    -0.74700
Al2447     Al  0.78218083  0.60045789  0.73370645     1.90100
O2448       O  0.74081884  0.56691393  0.75032935    -0.73800
O2449       O  0.70961319  0.62883394  0.75793467    -0.73600
O2450       O  0.72899270  0.59566709  0.79696731    -0.79300
O2451       O  0.73544941  0.65849534  0.75817804    -0.77500
O2452       O  0.75810192  0.61407780  0.75464281    -1.13600
O2453       O  0.78126281  0.65730872  0.74406470    -0.72800
C2454       C  0.78787650  0.65079611  0.71806304     0.97900
C2455       C  0.76104028  0.55643572  0.75284616     0.94300
Al2456     Al  0.72901672  0.59981588  0.75409369     1.55600
O2457       O  0.80849976  0.61021854  0.75999068    -0.77400
C2458       C  0.71384626  0.65141564  0.75745119     0.98500
C2459       C  0.74141937  0.59459027  0.69265270     0.93300
O2460       O  0.76225759  0.58888456  0.70189050    -0.82800
O2461       O  0.77111088  0.42253792  0.94555783    -0.82200
C2462       C  0.73961123  0.39851726  0.55825657     0.97100
O2463       O  0.73648365  0.41532441  0.53899929    -0.71300
O2464       O  0.74586473  0.44204141  0.49075188    -0.74900
Al2465     Al  0.73765920  0.41129186  0.99728478     1.49000
C2466       C  0.76579690  0.45256642  0.49496317     0.92400
O2467       O  0.81399424  0.40125322  0.50231196    -0.81100
O2468       O  0.79327202  0.35605290  0.99075493    -0.74700
Al2469     Al  0.79085441  0.41217192  0.97934411     1.90100
O2470       O  0.79631668  0.38214182  0.53918509    -0.73800
O2471       O  0.74312224  0.35134137  0.49853894    -0.73600
O2472       O  0.74958063  0.37849345  0.55088186    -0.79300
O2473       O  0.71922075  0.38271881  0.00231087    -0.77500
O2474       O  0.76681279  0.39778295  0.99906855    -1.13600
O2475       O  0.73582131  0.40616019  0.95449701    -0.72800
C2476       C  0.75106767  0.41424587  0.93596981     0.97900
C2477       C  0.81522465  0.39044181  0.52740410     0.94300
Al2478     Al  0.76959618  0.36880933  0.51740454     1.55600
O2479       O  0.78712156  0.44250274  0.00012039    -0.77400
C2480       C  0.72305479  0.36024757  0.00129866     0.98500
C2481       C  0.80247110  0.36349890  0.96632091     0.93300
O2482       O  0.79748593  0.38440031  0.95659810    -0.82800
O2483       O  0.78383842  0.37678968  0.77818151    -0.82200
C2484       C  0.71976872  0.39503322  0.68431703     0.97100
O2485       O  0.72476001  0.37353301  0.69287295    -0.71300
O2486       O  0.77085704  0.37529894  0.69266681    -0.74900
Al2487     Al  0.74945778  0.36398716  0.72117956     1.49000
C2488       C  0.79245633  0.37978437  0.69849084     0.92400
O2489       O  0.77353573  0.43529867  0.73401630    -0.81100
O2490       O  0.72565797  0.40447249  0.78981908    -0.74700
Al2491     Al  0.77739624  0.40452938  0.75497606     1.90100
O2492       O  0.73628492  0.44015518  0.74819684    -0.73800
O2493       O  0.70130146  0.37864710  0.74601733    -0.73600
O2494       O  0.71888188  0.41226811  0.70348459    -0.79300
O2495       O  0.72776434  0.34929635  0.74778932    -0.77500
O2496       O  0.74988072  0.39207153  0.74097612    -1.13600
O2497       O  0.77415084  0.34878892  0.74481951    -0.72800
C2498       C  0.78400902  0.35499048  0.76938615     0.97900
C2499       C  0.75623331  0.44946431  0.74051456     0.94300
Al2500     Al  0.72242803  0.40773168  0.74646277     1.55600
O2501       O  0.79776115  0.39164278  0.72236470    -0.77400
C2502       C  0.70632586  0.35617686  0.74977581     0.98500
C2503       C  0.74389463  0.41234638  0.80469731     0.93300
O2504       O  0.76324186  0.41764406  0.79115452    -0.82800
O2505       O  0.36438878  0.79780082  0.96511027    -0.82200
C2506       C  0.38888611  0.75476662  0.57515500     0.97100
O2507       O  0.36839124  0.76343791  0.56835873    -0.71300
O2508       O  0.36935480  0.80993059  0.55376885    -0.74900
Al2509     Al  0.35743246  0.78168158  0.53391289     1.49000
C2510       C  0.37654039  0.82914016  0.54104865     0.92400
O2511       O  0.42509588  0.79598684  0.00785976    -0.81100
O2512       O  0.39311770  0.73790427  0.97141872    -0.74700
Al2513     Al  0.39384643  0.79582276  0.98775403     1.90100
O2514       O  0.42896418  0.75630383  0.00722288    -0.73800
O2515       O  0.37008707  0.72347444  0.01903016    -0.73600
O2516       O  0.40419773  0.74989583  0.55535955    -0.79300
O2517       O  0.34139560  0.75478043  0.51601618    -0.77500
O2518       O  0.38242045  0.77225006  0.01130389    -1.13600
O2519       O  0.33895727  0.79455756  0.00227054    -0.72800
C2520       C  0.34326701  0.79989641  0.97530388     0.97900
C2521       C  0.43834308  0.77709545  0.00995083     0.94300
Al2522     Al  0.39765321  0.74359408  0.01307006     1.55600
O2523       O  0.38705119  0.82782472  0.51607533    -0.77400
C2524       C  0.34814151  0.72764773  0.01416635     0.98500
C2525       C  0.40036651  0.75214784  0.95117319     0.93300
O2526       O  0.40524204  0.77425063  0.95698920    -0.82800
O2527       O  0.36708408  0.79682535  0.71919591    -0.82200
C2528       C  0.38920735  0.74654670  0.82575263     0.97100
O2529       O  0.36953050  0.75714812  0.81968339    -0.71300
O2530       O  0.37118032  0.80371126  0.80605976    -0.74900
Al2531     Al  0.35811475  0.77570071  0.78634655     1.49000
C2532       C  0.37585792  0.82297900  0.79187384     0.92400
O2533       O  0.42708668  0.79375672  0.76198244    -0.81100
O2534       O  0.39322688  0.73778071  0.72127620    -0.74700
Al2535     Al  0.39604756  0.79448471  0.74183522     1.90100
O2536       O  0.43081524  0.75383363  0.75840994    -0.73800
O2537       O  0.36895004  0.72160191  0.76788091    -0.73600
O2538       O  0.40424806  0.74155690  0.80555379    -0.79300
O2539       O  0.34093116  0.74920429  0.76991528    -0.77500
O2540       O  0.38413482  0.77046539  0.76425439    -1.13600
O2541       O  0.34166946  0.79492408  0.75658708    -0.72800
C2542       C  0.34603515  0.79922637  0.72921933     0.97900
C2543       C  0.44045487  0.77491314  0.76052450     0.94300
Al2544     Al  0.39820098  0.74109771  0.76354543     1.55600
O2545       O  0.38571761  0.82152525  0.76650083    -0.77400
C2546       C  0.34686304  0.72735724  0.76613123     0.98500
C2547       C  0.40078708  0.75294455  0.70231167     0.93300
O2548       O  0.40765549  0.77387046  0.71084447    -0.82800
O2549       O  0.57361733  0.78187829  0.95289159    -0.82200
C2550       C  0.59598166  0.73742529  0.56345528     0.97100
O2551       O  0.57855730  0.73722824  0.54484259    -0.71300
O2552       O  0.55110300  0.75534600  0.50103673    -0.74900
Al2553     Al  0.58230512  0.74290268  0.00101053     1.49000
C2554       C  0.54288184  0.77853114  0.00657137     0.92400
O2555       O  0.60076245  0.81730882  0.52190023    -0.81100
O2556       O  0.63994209  0.79704738  0.00274239    -0.74700
Al2557     Al  0.58690253  0.79823309  0.98829620     1.90100
O2558       O  0.61110678  0.78955623  0.55412342    -0.73800
O2559       O  0.64071748  0.74571383  0.50178945    -0.73600
O2560       O  0.61678671  0.74314662  0.55478312    -0.79300
O2561       O  0.61083344  0.72205713  0.00210971    -0.77500
O2562       O  0.59821228  0.77060501  0.00435357    -1.13600
O2563       O  0.58498818  0.74348900  0.95857482    -0.72800
C2564       C  0.57794231  0.76085073  0.94185392     0.97900
C2565       C  0.61013929  0.81166236  0.54716124     0.94300
Al2566     Al  0.62537943  0.76813041  0.52706077     1.55600
O2567       O  0.55715288  0.79639828  0.00923554    -0.77400
C2568       C  0.63319102  0.72675321  0.99990946     0.98500
C2569       C  0.63481788  0.80737137  0.97803062     0.93300
O2570       O  0.61485492  0.80305883  0.96539530    -0.82800
O2571       O  0.61731107  0.80102091  0.79614456    -0.82200
C2572       C  0.60157788  0.74538169  0.69084230     0.97100
O2573       O  0.62076728  0.75640322  0.69827287    -0.71300
O2574       O  0.61942008  0.80345847  0.70936772    -0.74900
Al2575     Al  0.63036611  0.77603983  0.73189850     1.49000
C2576       C  0.61274992  0.82338479  0.72067997     0.92400
O2577       O  0.55915569  0.79544172  0.74960040    -0.81100
O2578       O  0.59044314  0.74131122  0.79540757    -0.74700
Al2579     Al  0.58962944  0.79730633  0.77136111     1.90100
O2580       O  0.55592798  0.75556830  0.75376695    -0.73800
O2581       O  0.61747751  0.72299098  0.75156230    -0.73600
O2582       O  0.58517738  0.74151092  0.70978459    -0.79300
O2583       O  0.64632745  0.74975307  0.75105389    -0.77500
O2584       O  0.60276151  0.77212724  0.75154897    -1.13600
O2585       O  0.64513572  0.79602316  0.76221958    -0.72800
C2586       C  0.63905862  0.80215759  0.78853605     0.97900
C2587       C  0.54607739  0.77629333  0.75034274     0.94300
Al2588     Al  0.58845637  0.74286655  0.75245815     1.55600
O2589       O  0.60117949  0.82323559  0.74505512    -0.77400
C2590       C  0.63966683  0.72801374  0.75391891     0.98500
C2591       C  0.58188072  0.75726305  0.81289529     0.93300
O2592       O  0.57658483  0.77824979  0.80309589    -0.82800
O2593       O  0.91784360  0.28229973  0.66025680    -0.82200
C2594       C  0.89609643  0.25019848  0.54569486     0.97100
O2595       O  0.91257665  0.24737537  0.56539779    -0.71300
O2596       O  0.93924960  0.25863304  0.61375781    -0.74900
Al2597     Al  0.90693593  0.24793253  0.60800784     1.49000
C2598       C  0.94984762  0.27806786  0.60679736     0.92400
O2599       O  0.89837329  0.32768709  0.59771927    -0.81100
O2600       O  0.85225671  0.30427275  0.61356842    -0.74700
Al2601     Al  0.90758056  0.30210128  0.62593578     1.90100
O2602       O  0.87892098  0.30797203  0.56221103    -0.73800
O2603       O  0.84966423  0.25537438  0.60487839    -0.73600
O2604       O  0.87627640  0.26042228  0.55239672    -0.79300
O2605       O  0.87866012  0.22895072  0.60240207    -0.77500
O2606       O  0.89350724  0.27742213  0.60616040    -1.13600
O2607       O  0.90165346  0.24641806  0.65064319    -0.72800
C2608       C  0.90936220  0.26207034  0.66951116     0.97900
C2609       C  0.88631003  0.32782620  0.57336526     0.94300
Al2610     Al  0.86648653  0.28159238  0.58511693     1.55600
O2611       O  0.93782798  0.29775784  0.60521614    -0.77400
C2612       C  0.85664179  0.23333209  0.60483495     0.98500
C2613       C  0.85909764  0.31383657  0.63834909     0.93300
O2614       O  0.87988718  0.30935201  0.64848076    -0.82800
O2615       O  0.86861903  0.29332224  0.82742374    -0.82200
C2616       C  0.88943102  0.22923173  0.92022464     0.97100
O2617       O  0.86812651  0.23368249  0.91158702    -0.71300
O2618       O  0.86998474  0.28011668  0.91315969    -0.74900
Al2619     Al  0.85797762  0.25882627  0.88434087     1.49000
C2620       C  0.87295707  0.30217252  0.90752359     0.92400
O2621       O  0.92670290  0.28474993  0.87159922    -0.81100
O2622       O  0.89731160  0.23524533  0.81485288    -0.74700
Al2623     Al  0.89641534  0.28780602  0.85045012     1.90100
O2624       O  0.93241155  0.24710318  0.85660644    -0.73800
O2625       O  0.87262720  0.21027108  0.85889654    -0.73600
O2626       O  0.90625654  0.22875390  0.90108983    -0.79300
O2627       O  0.84344499  0.23695937  0.85749691    -0.77500
O2628       O  0.88509475  0.25966271  0.86406985    -1.13600
O2629       O  0.84201272  0.28393610  0.86153526    -0.72800
C2630       C  0.84731515  0.29340116  0.83656809     0.97900
C2631       C  0.94099733  0.26747259  0.86528986     0.94300
Al2632     Al  0.90100703  0.23217260  0.85814167     1.55600
O2633       O  0.88352386  0.30814949  0.88333237    -0.77400
C2634       C  0.85023807  0.21513254  0.85706461     0.98500
C2635       C  0.90504851  0.25374103  0.80037597     0.93300
O2636       O  0.90959221  0.27367348  0.81408459    -0.82800
O2637       O  0.12879878  0.29199024  0.64507432    -0.82200
C2638       C  0.10175490  0.23882478  0.54471304     0.97100
O2639       O  0.12361068  0.24122002  0.55270288    -0.71300
O2640       O  0.12330137  0.28768487  0.55805205    -0.74900
Al2641     Al  0.13588338  0.26325524  0.58258896     1.49000
C2642       C  0.12248937  0.30924436  0.56730905     0.92400
O2643       O  0.06963407  0.29092205  0.60218885    -0.81100
O2644       O  0.09780422  0.23497331  0.64889122    -0.74700
Al2645     Al  0.10021924  0.29038166  0.62266896     1.90100
O2646       O  0.06206290  0.25237719  0.61155909    -0.73800
O2647       O  0.11956072  0.21340515  0.60326698    -0.73600
O2648       O  0.08584521  0.23666196  0.56459843    -0.79300
O2649       O  0.15029485  0.23842548  0.60506183    -0.77500
O2650       O  0.10964036  0.26325945  0.60430923    -1.13600
O2651       O  0.15407347  0.28540324  0.60844927    -0.72800
C2652       C  0.14992314  0.29237443  0.63506743     0.97900
C2653       C  0.05462447  0.27367824  0.60508580     0.94300
Al2654     Al  0.09248202  0.23616998  0.60687652     1.55600
O2655       O  0.11339068  0.31334018  0.59290013    -0.77400
C2656       C  0.14190797  0.21722293  0.60758789     0.98500
C2657       C  0.09285951  0.25222261  0.66675162     0.93300
O2658       O  0.08716808  0.27329608  0.65694385    -0.82800
O2659       O  0.11579030  0.30582685  0.90109369    -0.82200
C2660       C  0.10250900  0.25126217  0.79548528     0.97100
O2661       O  0.12301037  0.25893964  0.80438710    -0.71300
O2662       O  0.11696258  0.30550154  0.81474890    -0.74900
Al2663     Al  0.13071851  0.28016670  0.83798237     1.49000
C2664       C  0.10769408  0.32475363  0.82499357     0.92400
O2665       O  0.05772939  0.29213428  0.85812229    -0.81100
O2666       O  0.09661698  0.24018890  0.89761257    -0.74700
Al2667     Al  0.08850326  0.29736303  0.87800416     1.90100
O2668       O  0.05881119  0.25268045  0.86201826    -0.73800
O2669       O  0.12141321  0.22695324  0.85054288    -0.73600
O2670       O  0.08616220  0.24650161  0.81416729    -0.79300
O2671       O  0.14822871  0.25506880  0.85931625    -0.77500
O2672       O  0.10361014  0.27418784  0.85733718    -1.13600
O2673       O  0.14305673  0.30367700  0.86642767    -0.72800
C2674       C  0.13561172  0.31266207  0.89089696     0.97900
C2675       C  0.04665806  0.27193538  0.85962074     0.94300
Al2676     Al  0.09163221  0.24408706  0.85608667     1.55600
O2677       O  0.09581233  0.32406577  0.84941087    -0.77400
C2678       C  0.14265610  0.23264784  0.85788244     0.98500
C2679       C  0.08944564  0.25443602  0.91798688     0.93300
O2680       O  0.08070459  0.27539361  0.91142412    -0.82800
O2681       O  0.27820309  0.87345227  0.66465108    -0.82200
C2682       C  0.23469132  0.89529900  0.55286749     0.97100
O2683       O  0.24447924  0.87529992  0.55997130    -0.71300
O2684       O  0.28951468  0.87647387  0.57885129    -0.74900
Al2685     Al  0.26029923  0.86398245  0.59557290     1.49000
C2686       C  0.30755657  0.88399976  0.59372970     0.92400
O2687       O  0.27796912  0.93379028  0.62235327    -0.81100
O2688       O  0.22004595  0.90277088  0.65687542    -0.74700
Al2689     Al  0.27711299  0.90278710  0.64206097     1.90100
O2690       O  0.23872895  0.93828885  0.61952186    -0.73800
O2691       O  0.20623087  0.87643565  0.60990217    -0.73600
O2692       O  0.22828082  0.91043213  0.57266848    -0.79300
O2693       O  0.23265619  0.84718322  0.60903458    -0.77500
O2694       O  0.25439271  0.89080561  0.61722670    -1.13600
O2695       O  0.27707548  0.84736984  0.62709885    -0.72800
C2696       C  0.28078894  0.85204434  0.65462366     0.97900
C2697       C  0.25969120  0.94750577  0.61965238     0.94300
Al2698     Al  0.22574998  0.90569777  0.61476493     1.55600
O2699       O  0.30463663  0.89308953  0.61941460    -0.77400
C2700       C  0.21107650  0.85390808  0.61136446     0.98500
C2701       C  0.23415373  0.91046534  0.67722069     0.93300
O2702       O  0.25580747  0.91506726  0.67133043    -0.82800
O2703       O  0.28653148  0.88086750  0.90673563    -0.82200
C2704       C  0.23307303  0.90654663  0.80353681     0.97100
O2705       O  0.24221853  0.88578027  0.80878211    -0.71300
O2706       O  0.28847059  0.88549912  0.82099848    -0.74900
Al2707     Al  0.26133410  0.87310250  0.84123043     1.49000
C2708       C  0.30805299  0.89170971  0.83324329     0.92400
O2709       O  0.28091099  0.94375870  0.86925282    -0.81100
O2710       O  0.22700666  0.90774161  0.90785290    -0.74700
Al2711     Al  0.28263040  0.91102032  0.88640417     1.90100
O2712       O  0.24195621  0.94590509  0.87362335    -0.73800
O2713       O  0.20948398  0.88649201  0.85873668    -0.73600
O2714       O  0.22967539  0.92188409  0.82437486    -0.79300
O2715       O  0.23496174  0.85640319  0.85813721    -0.77500
O2716       O  0.25798594  0.89949246  0.86426040    -1.13600
O2717       O  0.28081606  0.85533319  0.86929677    -0.72800
C2718       C  0.28753510  0.85950513  0.89599683     0.97900
C2719       C  0.26188972  0.95659474  0.87160503     0.94300
Al2720     Al  0.22947978  0.91430850  0.86600351     1.55600
O2721       O  0.30790348  0.90205230  0.85873328    -0.77400
C2722       C  0.21365060  0.86391897  0.85911352     0.98500
C2723       C  0.24236469  0.91450194  0.92742313     0.93300
O2724       O  0.26331934  0.92084656  0.91977872    -0.82800
O2725       O  0.29222656  0.12388583  0.58647324    -0.82200
C2726       C  0.23997208  0.11002402  0.69227628     0.97100
O2727       O  0.24815856  0.13065661  0.68391325    -0.71300
O2728       O  0.29434337  0.13119842  0.67085669    -0.74900
Al2729     Al  0.26641089  0.14031103  0.64869763     1.49000
C2730       C  0.31319868  0.12098820  0.66165741     0.92400
O2731       O  0.28372652  0.06672504  0.63262569    -0.81100
O2732       O  0.23012357  0.10097987  0.58945387    -0.74700
Al2733     Al  0.28640978  0.09696721  0.61104107     1.90100
O2734       O  0.24487519  0.06420837  0.62667942    -0.73800
O2735       O  0.21388511  0.12551722  0.63604598    -0.73600
O2736       O  0.23565125  0.09302844  0.67357156    -0.79300
O2737       O  0.23953563  0.15482419  0.62905810    -0.77500
O2738       O  0.26248333  0.11150029  0.63073315    -1.13600
O2739       O  0.28538748  0.15452915  0.61705133    -0.72800
C2740       C  0.29334122  0.14625317  0.59247486     0.97900
C2741       C  0.26502724  0.05377141  0.62985483     0.94300
Al2742     Al  0.23362097  0.09703688  0.63147213     1.55600
O2743       O  0.31209548  0.10696267  0.63892168    -0.77400
C2744       C  0.21815838  0.14758630  0.63051578     0.98500
C2745       C  0.24506695  0.09383605  0.57003904     0.93300
O2746       O  0.26567562  0.08581534  0.57807590    -0.82800
O2747       O  0.28394024  0.13655471  0.83749382    -0.82200
C2748       C  0.23688651  0.11631700  0.94473215     0.97100
O2749       O  0.24549162  0.13697120  0.93807598    -0.71300
O2750       O  0.29077610  0.13441000  0.92422193    -0.74900
Al2751     Al  0.26363926  0.14759290  0.90425182     1.49000
C2752       C  0.30984820  0.12882749  0.91086694     0.92400
O2753       O  0.28133755  0.07747997  0.88139746    -0.81100
O2754       O  0.22571334  0.11098724  0.84001287    -0.74700
Al2755     Al  0.28183455  0.10807953  0.86049080     1.90100
O2756       O  0.24212120  0.07385083  0.87769943    -0.73800
O2757       O  0.21053586  0.13626520  0.88738426    -0.73600
O2758       O  0.23137644  0.10096438  0.92455141    -0.79300
O2759       O  0.23770799  0.16486444  0.88709358    -0.77500
O2760       O  0.25838701  0.12081016  0.88265700    -1.13600
O2761       O  0.28259012  0.16314124  0.87445942    -0.72800
C2762       C  0.28664218  0.15798220  0.84723714     0.97900
C2763       C  0.26280265  0.06397943  0.88046913     0.94300
Al2764     Al  0.22962405  0.10661660  0.88255242     1.55600
O2765       O  0.30867112  0.11888826  0.88524903    -0.74200
C2766       C  0.21604321  0.15867516  0.88529564     0.98500
C2767       C  0.24039307  0.10280844  0.82094053     0.93300
O2768       O  0.26104515  0.09568414  0.82950074    -0.82800
O2769       O  0.86650553  0.71562486  0.65549020    -0.82200
C2770       C  0.88828329  0.77371927  0.55781047     0.97100
O2771       O  0.86677014  0.77016660  0.56578352    -0.71300
O2772       O  0.87195345  0.72383539  0.56879005    -0.74900
Al2773     Al  0.85679296  0.74604794  0.59412322     1.49000
C2774       C  0.87178213  0.70212846  0.57714346     0.92400
O2775       O  0.92544245  0.72317977  0.61342659    -0.81100
O2776       O  0.89352808  0.77486832  0.66347451    -0.74700
Al2777     Al  0.89472320  0.72038217  0.63338684     1.90100
O2778       O  0.92979366  0.76178594  0.62513817    -0.73800
O2779       O  0.86887149  0.79619951  0.61804463    -0.73600
O2780       O  0.90425686  0.77679217  0.57803703    -0.79300
O2781       O  0.84018620  0.76880887  0.61734052    -0.77500
O2782       O  0.88298071  0.74743657  0.61667056    -1.13600
O2783       O  0.84069302  0.72141615  0.61839092    -0.72800
C2784       C  0.84552605  0.71372616  0.64467643     0.97900
C2785       C  0.93915693  0.74150179  0.61817000     0.94300
Al2786     Al  0.89803114  0.77560678  0.62086007     1.55600
O2787       O  0.88216402  0.69722625  0.60208988    -0.77400
C2788       C  0.84667551  0.79068772  0.62049229     0.98500
C2789       C  0.90087758  0.75749463  0.68018079     0.93300
O2790       O  0.90705513  0.73715744  0.66875015    -0.82800
O2791       O  0.87187365  0.70232063  0.91589379    -0.82200
C2792       C  0.88920924  0.75450244  0.80908772     0.97100
O2793       O  0.86859371  0.74747950  0.81768217    -0.71300
O2794       O  0.87123942  0.70103563  0.82959976    -0.74900
Al2795     Al  0.85932633  0.72749211  0.85158250     1.49000
C2796       C  0.87887708  0.68121930  0.84037306     0.92400
O2797       O  0.93063419  0.70987378  0.87444066    -0.81100
O2798       O  0.89558574  0.76571791  0.91139722    -0.74700
Al2799     Al  0.89968890  0.70774716  0.89357215     1.90100
O2800       O  0.93245688  0.74950048  0.87769536    -0.73800
O2801       O  0.87282112  0.78005068  0.86257010    -0.73600
O2802       O  0.90636422  0.75715899  0.82795394    -0.79300
O2803       O  0.84416065  0.75416728  0.87172883    -0.77500
O2804       O  0.88664078  0.73163035  0.87161976    -1.13600
O2805       O  0.84506263  0.70533834  0.88007554    -0.72800
C2806       C  0.85188015  0.69630322  0.90497900     0.97900
C2807       C  0.94299686  0.72924735  0.87523370     0.94300
Al2808     Al  0.90084271  0.76065490  0.87004644     1.55600
O2809       O  0.89036942  0.68107177  0.86541821    -0.77400
C2810       C  0.85132339  0.77607186  0.86950503     0.98500
C2811       C  0.90136164  0.75133495  0.93245445     0.93300
O2812       O  0.90907708  0.72981937  0.92672376    -0.82800
O2813       O  0.11826505  0.70238933  0.58369642    -0.82200
C2814       C  0.09754742  0.75806102  0.68716616     0.97100
O2815       O  0.11816220  0.74979821  0.68066824    -0.71300
O2816       O  0.11190256  0.70297021  0.67057511    -0.74900
Al2817     Al  0.12745627  0.72780182  0.64876298     1.49000
C2818       C  0.10548475  0.68300669  0.65870561     0.92400
O2819       O  0.05705955  0.71225874  0.61979079    -0.81100
O2820       O  0.09448219  0.76626399  0.58425793    -0.74700
Al2821     Al  0.08894944  0.70897646  0.60334059     1.90100
O2822       O  0.05624859  0.75199649  0.61757662    -0.73800
O2823       O  0.11831021  0.78074950  0.63245705    -0.73600
O2824       O  0.08163005  0.76100922  0.66699776    -0.79300
O2825       O  0.14584875  0.75252752  0.62896614    -0.77500
O2826       O  0.10164230  0.73294095  0.62578396    -1.13600
O2827       O  0.14194318  0.70366872  0.62300863    -0.72800
C2828       C  0.13680291  0.69490474  0.59744735     0.97900
C2829       C  0.04505833  0.73188518  0.61875568     0.94300
Al2830     Al  0.08863488  0.76255153  0.62538508     1.55600
O2831       O  0.09599198  0.68279261  0.63247974    -0.77400
C2832       C  0.14021172  0.77491560  0.62886173     0.98500
C2833       C  0.08820113  0.75191877  0.56342171     0.93300
O2834       O  0.08126005  0.73025795  0.56929335    -0.82800
O2835       O  0.12172443  0.71971278  0.83919509    -0.82200
C2836       C  0.09543103  0.77540549  0.93729974     0.97100
O2837       O  0.11730064  0.77225484  0.93067984    -0.71300
O2838       O  0.11540552  0.72567881  0.92574324    -0.74900
Al2839     Al  0.12901309  0.74944557  0.90149139     1.49000
C2840       C  0.11494365  0.70408841  0.91653723     0.92400
O2841       O  0.06182782  0.72320455  0.87927538    -0.81100
O2842       O  0.09155219  0.77750991  0.83201171    -0.74700
Al2843     Al  0.09288648  0.72256233  0.86037751     1.90100
O2844       O  0.05611578  0.76187457  0.86955428    -0.73800
O2845       O  0.11401336  0.79913658  0.87819914    -0.73600
O2846       O  0.07983195  0.77770244  0.91660172    -0.79300
O2847       O  0.14434514  0.77362301  0.87919673    -0.77500
O2848       O  0.10297575  0.74978342  0.87844857    -1.13600
O2849       O  0.14663108  0.72633142  0.87704711    -0.72800
C2850       C  0.14253694  0.71863358  0.85060128     0.97900
C2851       C  0.04757376  0.74109998  0.87532767     0.94300
Al2852     Al  0.08658749  0.77720751  0.87445972     1.55600
O2853       O  0.10531781  0.69974488  0.89107362    -0.77400
C2854       C  0.13631313  0.79488289  0.87539662     0.98500
C2855       C  0.08520780  0.76011057  0.81473793     0.93300
O2856       O  0.08050775  0.73918146  0.82538814    -0.82800
O2857       O  0.69472125  0.88423080  0.59391006    -0.82200
C2858       C  0.75027578  0.89789547  0.69965967     0.97100
O2859       O  0.74176366  0.87768830  0.69067687    -0.71300
O2860       O  0.69562272  0.88431023  0.68109309    -0.74900
Al2861     Al  0.72032245  0.87023252  0.65774214     1.49000
C2862       C  0.67611779  0.89224852  0.67004319     0.92400
O2863       O  0.70630427  0.94338056  0.63704881    -0.81100
O2864       O  0.75836633  0.90691087  0.59682035    -0.74700
Al2865     Al  0.70209448  0.91233100  0.61700207     1.90100
O2866       O  0.74546097  0.94391214  0.63422612    -0.73800
O2867       O  0.77251339  0.88042992  0.64303538    -0.73600
O2868       O  0.75376734  0.91513427  0.68125459    -0.79300
O2869       O  0.74473396  0.85261802  0.63651803    -0.77500
O2870       O  0.72564210  0.89774008  0.63783289    -1.13600
O2871       O  0.69688673  0.85753217  0.63003279    -0.72800
C2872       C  0.68801570  0.86432452  0.60521121     0.97900
C2873       C  0.72582415  0.95532559  0.63653324     0.94300
Al2874     Al  0.75507206  0.91061553  0.63881838     1.55600
O2875       O  0.67619925  0.90381199  0.64518952    -0.77400
C2876       C  0.76674713  0.85853451  0.63742991     0.98500
C2877       C  0.74394357  0.91465098  0.57677567     0.93300
O2878       O  0.72291956  0.92168272  0.58394344    -0.82800
O2879       O  0.71077182  0.87440871  0.85039556    -0.82200
C2880       C  0.76585787  0.89794417  0.95121506     0.97100
O2881       O  0.76126341  0.87611701  0.94401577    -0.71300
O2882       O  0.71576518  0.88320196  0.93801275    -0.74900
Al2883     Al  0.73773572  0.86632889  0.91433912     1.49000
C2884       C  0.69460173  0.88360755  0.92829391     0.92400
O2885       O  0.71652837  0.93443198  0.89168814    -0.81100
O2886       O  0.76886168  0.90140747  0.84578193    -0.74700
Al2887     Al  0.71450294  0.90351909  0.87223142     1.90100
O2888       O  0.75524217  0.93902093  0.88310145    -0.73800
O2889       O  0.78794825  0.87641381  0.89235268    -0.73600
O2890       O  0.76899201  0.91365952  0.93079870    -0.79300
O2891       O  0.75979802  0.84859287  0.89242593    -0.77500
O2892       O  0.74041562  0.89205125  0.89118528    -1.13600
O2893       O  0.71351173  0.84997172  0.88934480    -0.72800
C2894       C  0.70730501  0.85389100  0.86222685     0.97900
C2895       C  0.73459444  0.94816980  0.88773808     0.94300
Al2896     Al  0.76853639  0.90662773  0.88829898     1.55600
O2897       O  0.69082951  0.89222117  0.90214298    -0.77400
C2898       C  0.78154346  0.85405270  0.88996552     0.98500
C2899       C  0.75232681  0.90896560  0.82814262     0.93300
O2900       O  0.73199557  0.91530461  0.83819320    -0.82800
O2901       O  0.73198669  0.08970833  0.57222178    -0.82200
C2902       C  0.77175511  0.11758645  0.67869489     0.97100
O2903       O  0.77395378  0.10005608  0.66029780    -0.71300
O2904       O  0.75791623  0.06974472  0.61811457    -0.74900
Al2905     Al  0.77103812  0.10283501  0.61741094     1.49000
C2906       C  0.73800510  0.06128481  0.62733847     0.92400
O2907       O  0.69458836  0.11759043  0.63694436    -0.81100
O2908       O  0.71666321  0.15970944  0.61448738    -0.74700
Al2909     Al  0.71632007  0.10424608  0.60645480     1.90100
O2910       O  0.72027300  0.13438919  0.66794486    -0.73800
O2911       O  0.76309393  0.16088616  0.61346263    -0.73600
O2912       O  0.76622113  0.13860774  0.66908520    -0.79300
O2913       O  0.79082948  0.13292780  0.61621400    -0.77500
O2914       O  0.74297299  0.11780725  0.62102576    -1.13600
O2915       O  0.76891417  0.10422186  0.57414925    -0.72800
C2916       C  0.75132334  0.09564348  0.55894399     0.97900
C2917       C  0.69900556  0.12911456  0.66124135     0.94300
Al2918     Al  0.74167254  0.14619219  0.63974402     1.55600
O2919       O  0.72017491  0.07548595  0.63018682    -0.77400
C2920       C  0.78480467  0.15511890  0.61164595     0.98500
C2921       C  0.70787537  0.15263914  0.58954840     0.93300
O2922       O  0.71008577  0.13084465  0.58115263    -0.82800
O2923       O  0.69528485  0.12404254  0.90807406    -0.82200
C2924       C  0.75322841  0.10943247  0.80507404     0.97100
O2925       O  0.74276027  0.12901427  0.81280405    -0.71300
O2926       O  0.69583632  0.12583096  0.82198068    -0.74900
Al2927     Al  0.72229529  0.13805185  0.84547003     1.49000
C2928       C  0.67649704  0.11760049  0.83268987     0.92400
O2929       O  0.70594579  0.06490195  0.86488709    -0.81100
O2930       O  0.75777120  0.09999307  0.90999194    -0.74700
Al2931     Al  0.70218770  0.09599523  0.88489706     1.90100
O2932       O  0.74498032  0.06392533  0.87067677    -0.73800
O2933       O  0.77441301  0.12523988  0.86287379    -0.73600
O2934       O  0.75617235  0.09207150  0.82370270    -0.79300
O2935       O  0.74836636  0.15490150  0.86586829    -0.77500
O2936       O  0.72657603  0.11021581  0.86547313    -1.13600
O2937       O  0.70046126  0.15201631  0.87385476    -0.72800
C2938       C  0.69113500  0.14520146  0.89822682     0.97900
C2939       C  0.72522751  0.05277767  0.86815083     0.94300
Al2940     Al  0.75575019  0.09643353  0.86669178     1.55600
O2941       O  0.67699721  0.10514279  0.85662419    -0.77400
C2942       C  0.76998479  0.14763534  0.86522703     0.98500
C2943       C  0.74220623  0.09165143  0.92808445     0.93300
O2944       O  0.72157173  0.08562435  0.91832252    -0.82800
C2945       C  0.76195981  0.09185943  0.72284684    -0.06200
C2946       C  0.77277546  0.11329043  0.71178230    -0.00300
C2947       C  0.78035574  0.13156304  0.73250958    -0.08800
C2948       C  0.77490439  0.12867381  0.76314083    -0.06200
C2949       C  0.76250487  0.10810413  0.77386069    -0.00300
C2950       C  0.75659897  0.08895091  0.75363805    -0.08700
C2951       C  0.74336088  0.06631390  0.76418098     0.61600
H2952       H  0.75602580  0.07814368  0.70685668     0.12300
H2953       H  0.77933982  0.14319557  0.77886733     0.12300
C2954       C  0.79309483  0.15469811  0.72252360     0.61900
F2955       F  0.73754545  0.05082186  0.74051778    -0.23300
F2956       F  0.72218483  0.07294263  0.77815758    -0.20600
F2957       F  0.75778616  0.05357367  0.78428775    -0.20300
F2958       F  0.77640988  0.17121443  0.71134829    -0.20400
F2959       F  0.80973901  0.14936770  0.70051047    -0.20700
F2960       F  0.80534686  0.16567124  0.74627097    -0.23400
C2961       C  0.73520982  0.07620641  0.51255329    -0.06200
C2962       C  0.75215306  0.09235775  0.52532832    -0.00300
C2963       C  0.76712597  0.10591902  0.50561329    -0.08800
C2964       C  0.76558152  0.10408605  0.97430728    -0.06200
C2965       C  0.74728075  0.08954332  0.96125195    -0.00300
C2966       C  0.73322122  0.07452992  0.98054606    -0.08700
C2967       C  0.71465136  0.05618215  0.96888033     0.61600
H2968       H  0.72437466  0.06529476  0.52752371     0.12300
H2969       H  0.77664364  0.11494921  0.95953743     0.12300
C2970       C  0.78761713  0.12180211  0.51742665     0.61900
F2971       F  0.70737897  0.04019912  0.99113531    -0.23300
F2972       F  0.72440360  0.04226447  0.94607208    -0.20600
F2973       F  0.69434254  0.06827657  0.95843179    -0.20300
F2974       F  0.80376957  0.10750400  0.53349596    -0.20400
F2975       F  0.77881269  0.14002131  0.53587294    -0.20700
F2976       F  0.80010416  0.13287869  0.49436504    -0.23400
C2977       C  0.71159042  0.98376364  0.86799791    -0.06200
C2978       C  0.73129791  0.97501556  0.88512283    -0.00300
C2979       C  0.74836775  0.99184551  0.89677719    -0.08800
C2980       C  0.74509645  0.01678445  0.89076385    -0.06200
C2981       C  0.72578556  0.02572481  0.87299812    -0.00300
C2982       C  0.70867312  0.00887486  0.86132240    -0.08700
C2983       C  0.68814116  0.01705568  0.84093511     0.61600
H2984       H  0.69891277  0.97057048  0.85887217     0.12300
H2985       H  0.75804436  0.02964425  0.89998661     0.12300
C2986       C  0.77003608  0.98376002  0.91556068     0.61900
F2987       F  0.67550659  0.99739174  0.82903724    -0.23300
F2988       F  0.69715529  0.03046315  0.81721979    -0.20600
F2989       F  0.67220438  0.03127700  0.85701155    -0.20300
F2990       F  0.78651146  0.97199437  0.89747001    -0.20400
F2991       F  0.76273781  0.96813914  0.93812024    -0.20700
F2992       F  0.78169988  0.00336181  0.92906807    -0.23400
C2993       C  0.74648988  0.92363645  0.74481399    -0.06200
C2994       C  0.75470797  0.90167296  0.73224974    -0.00300
C2995       C  0.76465826  0.88338555  0.75134485    -0.08800
C2996       C  0.76602899  0.88793966  0.78247004    -0.06200
C2997       C  0.75574056  0.90889426  0.79519305    -0.00300
C2998       C  0.74603849  0.92729994  0.77611156    -0.08700
C2999       C  0.73433834  0.95030125  0.78845691     0.61600
H3000       H  0.73860345  0.93721103  0.72996672     0.12300
H3001       H  0.77302618  0.87398760  0.79746135     0.12300
C3002       C  0.77275802  0.85870845  0.73942017     0.61900
F3003       F  0.73109685  0.96781025  0.76633059    -0.23300
F3004       F  0.74866627  0.96039096  0.81092442    -0.20600
F3005       F  0.71193657  0.94470306  0.79990721    -0.20300
F3006       F  0.78847672  0.86187294  0.71583014    -0.20400
F3007       F  0.75293421  0.84552300  0.72965540    -0.20700
F3008       F  0.78435494  0.84496981  0.76134317    -0.23400
C3009       C  0.77121962  0.89884711  0.53706652    -0.06200
C3010       C  0.75168312  0.91417424  0.54456997    -0.00300
C3011       C  0.73970080  0.92715587  0.52104388    -0.08800
C3012       C  0.74674154  0.92288708  0.99071861    -0.06200
C3013       C  0.76405418  0.90520990  0.98337278    -0.00300
C3014       C  0.77579698  0.89227264  0.00678661    -0.08700
C3015       C  0.79455579  0.87288197  0.00010631     0.61600
H3016       H  0.78077958  0.88932567  0.55487990     0.12300
H3017       H  0.73764068  0.93224335  0.97237725     0.12300
C3018       C  0.72004994  0.94582360  0.52698859     0.61900
F3019       F  0.80819412  0.86725549  0.02543830    -0.23300
F3020       F  0.81010284  0.88104039  0.97817252    -0.20600
F3021       F  0.78322950  0.85179594  0.99016899    -0.20300
F3022       F  0.72770505  0.96212826  0.54893758    -0.20400
F3023       F  0.69930893  0.93412316  0.53615655    -0.20700
F3024       F  0.71306633  0.95810220  0.00067575    -0.23400
C3025       C  0.74893480  0.99358533  0.64609577    -0.06200
C3026       C  0.72681299  0.98282400  0.63743219    -0.00300
C3027       C  0.70810844  0.99836989  0.62658552    -0.08800
C3028       C  0.71230468  0.02387366  0.62522156    -0.06200
C3029       C  0.73482542  0.03436820  0.63252321    -0.00300
C3030       C  0.75356357  0.01882198  0.64312909    -0.08700
C3031       C  0.77854726  0.02846598  0.65103355     0.61600
H3032       H  0.76320132  0.98175170  0.65422284     0.12300
H3033       H  0.69820660  0.03582276  0.61687696     0.12300
C3034       C  0.68431766  0.98825280  0.61476593     0.61900
F3035       F  0.79295162  0.01075402  0.66428701    -0.23300
F3036       F  0.77678719  0.04769927  0.67106156    -0.20600
F3037       F  0.78993559  0.03621034  0.62523608    -0.20300
F3038       F  0.66934388  0.00647669  0.60375434    -0.20400
F3039       F  0.67230392  0.97644340  0.63761062    -0.20700
F3040       F  0.68853608  0.97204912  0.59148800    -0.23400
C3041       C  0.07300337  0.74932010  0.73147791    -0.06200
C3042       C  0.09177618  0.76281249  0.71891793    -0.00300
C3043       C  0.10543704  0.77895244  0.73720787    -0.08800
C3044       C  0.10159410  0.77894623  0.76848565    -0.06200
C3045       C  0.08443922  0.76343006  0.78158708    -0.00300
C3046       C  0.06882482  0.74952177  0.76258446    -0.08700
C3047       C  0.04802220  0.73455207  0.77471599     0.61600
H3048       H  0.06238009  0.73752282  0.71687445     0.12300
H3049       H  0.11299659  0.79000060  0.78303188     0.12300
C3050       C  0.12375757  0.79616451  0.72358668     0.61900
F3051       F  0.03159101  0.72861686  0.75218593    -0.23300
F3052       F  0.03586250  0.74774233  0.79634743    -0.20600
F3053       F  0.05657223  0.71301979  0.78707448    -0.20300
F3054       F  0.11312741  0.80901540  0.70015710    -0.20400
F3055       F  0.14310723  0.78305106  0.71276397    -0.20700
F3056       F  0.13234877  0.81292131  0.74448608    -0.23400
C3057       C  0.10392862  0.78618391  0.99019508    -0.06200
C3058       C  0.08867789  0.77436737  0.96947911    -0.00300
C3059       C  0.07082708  0.75801042  0.98018510    -0.08800
C3060       C  0.07023559  0.75375163  0.51208016    -0.06200
C3061       C  0.08885358  0.76078270  0.53185736    -0.00300
C3062       C  0.10794055  0.77554225  0.52096647    -0.08700
C3063       C  0.12900421  0.78347562  0.54091384     0.61600
H3064       H  0.11745563  0.79848111  0.98149557     0.12300
H3065       H  0.05575787  0.74270583  0.52089579     0.12300
C3066       C  0.05406059  0.74417273  0.95897836     0.61900
F3067       F  0.14702552  0.79470112  0.52466005    -0.23300
F3068       F  0.13902461  0.76335383  0.55513240    -0.20600
F3069       F  0.12111820  0.80003791  0.56213278    -0.20300
F3070       F  0.06744197  0.72980601  0.93989138    -0.20400
F3071       F  0.04031343  0.76047095  0.94241679    -0.20700
F3072       F  0.03845857  0.72894487  0.97421169    -0.23400
C3073       C  0.81066734  0.79085881  0.88171016    -0.06200
C3074       C  0.83443232  0.79694188  0.87465610    -0.00300
C3075       C  0.84104865  0.82221043  0.87357411    -0.08800
C3076       C  0.82308610  0.84003742  0.87823411    -0.06200
C3077       C  0.79923449  0.83383170  0.88503773    -0.00300
C3078       C  0.79302390  0.80850837  0.88756236    -0.08700
C3079       C  0.76821201  0.79936503  0.89693916     0.61600
H3080       H  0.80588516  0.77172728  0.88288538     0.12300
H3081       H  0.82764899  0.85922747  0.87681087     0.12300
C3082       C  0.86677750  0.83090987  0.86837500     0.61900
F3083       F  0.76744856  0.77419910  0.90014852    -0.23300
F3084       F  0.75111533  0.80551654  0.87536687    -0.20600
F3085       F  0.76220692  0.80932840  0.92448281    -0.20300
F3086       F  0.87457792  0.82347317  0.84045199    -0.20400
F3087       F  0.88195279  0.82167396  0.89045685    -0.20700
F3088       F  0.86868766  0.85614066  0.86933580    -0.23400
C3089       C  0.97993739  0.75246587  0.86579806    -0.06200
C3090       C  0.96992695  0.72986549  0.87377949    -0.00300
C3091       C  0.98565246  0.71079635  0.88308491    -0.08800
C3092       C  0.01085663  0.71508175  0.88309567    -0.06200
C3093       C  0.02071455  0.73807777  0.87578789    -0.00300
C3094       C  0.00458887  0.75752835  0.86809266    -0.08700
C3095       C  0.01246727  0.78397730  0.86291787     0.61600
H3096       H  0.96791741  0.76682745  0.85829071     0.12300
H3097       H  0.02307067  0.70048432  0.88934777     0.12300
C3098       C  0.97605189  0.68637819  0.89371710     0.61900
F3099       F  0.99312129  0.79961165  0.85852452    -0.23300
F3100       F  0.02662467  0.78553109  0.83759493    -0.20600
F3101       F  0.02501433  0.79252678  0.88789154    -0.20300
F3102       F  0.96382257  0.67487183  0.87040175    -0.20400
F3103       F  0.96062818  0.68995833  0.91756259    -0.20700
F3104       F  0.99436618  0.67100558  0.90338884    -0.23400
C3105       C  0.80583188  0.80075764  0.63877587    -0.06200
C3106       C  0.82734101  0.80924241  0.62584360    -0.00300
C3107       C  0.82832267  0.83379245  0.61567952    -0.08800
C3108       C  0.80798530  0.84893429  0.61964362    -0.06200
C3109       C  0.78646320  0.84035958  0.63245018    -0.00300
C3110       C  0.78526627  0.81560493  0.64182071    -0.08700
C3111       C  0.76262620  0.80465618  0.65516120     0.61600
H3112       H  0.80509946  0.78194854  0.64622560     0.12300
H3113       H  0.80866770  0.86779494  0.61236500     0.12300
C3114       C  0.85028986  0.84394078  0.59992745     0.61900
F3115       F  0.76598596  0.78067653  0.66420979    -0.23300
F3116       F  0.74429814  0.80482669  0.63388112    -0.20600
F3117       F  0.75576993  0.81799233  0.68002272    -0.20300
F3118       F  0.85570581  0.82954042  0.57528683    -0.20400
F3119       F  0.86971582  0.84436387  0.61968101    -0.20700
F3120       F  0.84653928  0.86754982  0.58972669    -0.23400
C3121       C  0.88094865  0.77200340  0.72643431    -0.06200
C3122       C  0.90072010  0.76007664  0.71353393    -0.00300
C3123       C  0.91818010  0.74894145  0.73270733    -0.08800
C3124       C  0.91420921  0.74866818  0.76395925    -0.06200
C3125       C  0.89331752  0.75864940  0.77652355    -0.00300
C3126       C  0.87658818  0.77108290  0.75757891    -0.08700
C3127       C  0.85432768  0.78356841  0.76997015     0.61600
H3128       H  0.86801743  0.78081716  0.71160827     0.12300
H3129       H  0.92690835  0.73946138  0.77875924     0.12300
C3130       C  0.94103582  0.73750983  0.72052158     0.61900
F3131       F  0.84246729  0.79730875  0.74827331    -0.23300
F3132       F  0.86095293  0.79908937  0.79310703    -0.20600
F3133       F  0.83825939  0.76642678  0.78059127    -0.20300
F3134       F  0.95181398  0.75336338  0.70054385    -0.20400
F3135       F  0.93569124  0.71574211  0.70608398    -0.20700
F3136       F  0.95756028  0.73254060  0.74327865    -0.23400
C3137       C  0.87387218  0.77302203  0.50495822    -0.06200
C3138       C  0.89377986  0.77192906  0.52480256    -0.00300
C3139       C  0.91660760  0.76519431  0.51282385    -0.08800
C3140       C  0.91763029  0.75692963  0.98447197    -0.06200
C3141       C  0.89842941  0.75976098  0.96408306    -0.00300
C3142       C  0.87643515  0.76989416  0.97439209    -0.08700
C3143       C  0.85487277  0.77355448  0.95355507     0.61600
H3144       H  0.85661567  0.77864776  0.51370713     0.12300
H3145       H  0.93424013  0.74922390  0.97611628     0.12300
C3146       C  0.93929092  0.76457004  0.53195454     0.61900
F3147       F  0.83425804  0.77976929  0.96907996    -0.23300
F3148       F  0.85003173  0.75230762  0.93768937    -0.20600
F3149       F  0.85981070  0.79229306  0.93385332    -0.20300
F3150       F  0.93699479  0.74712580  0.55409150    -0.20400
F3151       F  0.94300676  0.78733443  0.54462968    -0.20700
F3152       F  0.95949189  0.75880757  0.51535442    -0.23400
C3153       C  0.97681471  0.71609928  0.61300064    -0.06200
C3154       C  0.96632966  0.73937673  0.61694678    -0.00300
C3155       C  0.98216910  0.75982870  0.62066205    -0.08800
C3156       C  0.00719437  0.75579507  0.62195807    -0.06200
C3157       C  0.01778380  0.73262799  0.61846102    -0.00300
C3158       C  0.00217118  0.71233499  0.61319009    -0.08700
C3159       C  0.01189335  0.68687577  0.60720807     0.61600
H3160       H  0.96488599  0.70064355  0.60981754     0.12300
H3161       H  0.01891961  0.77126834  0.62593955     0.12300
C3162       C  0.97346077  0.78619729  0.62337963     0.61900
F3163       F  0.99362380  0.67024205  0.60124988    -0.23300
F3164       F  0.02466170  0.67865866  0.63209018    -0.20600
F3165       F  0.02678066  0.68735465  0.58246545    -0.20300
F3166       F  0.96146773  0.78939525  0.65018709    -0.20400
F3167       F  0.95841316  0.79192958  0.59950509    -0.20700
F3168       F  0.99225030  0.80286820  0.62293164    -0.23400
C3169       C  0.22067422  0.11997609  0.74111281    -0.06200
C3170       C  0.23670658  0.10539178  0.72468683    -0.00300
C3171       C  0.25068926  0.08753003  0.73969517    -0.08800
C3172       C  0.24932051  0.08589487  0.77104271    -0.06200
C3173       C  0.23488533  0.10176172  0.78806303    -0.00300
C3174       C  0.21903966  0.11811699  0.77277066    -0.08700
C3175       C  0.20086872  0.13377181  0.78941903     0.61600
H3176       H  0.20980371  0.13317661  0.72893640     0.12300
H3177       H  0.26056912  0.07273833  0.78272669     0.12300
C3178       C  0.26802205  0.07109001  0.72285468     0.61900
F3179       F  0.18658074  0.14722971  0.76981416    -0.23300
F3180       F  0.21252555  0.14998166  0.80852954    -0.20600
F3181       F  0.18585338  0.11890529  0.80597091    -0.20300
F3182       F  0.28142675  0.05644529  0.74212300    -0.20400
F3183       F  0.28392625  0.08515278  0.70654658    -0.20700
F3184       F  0.25519972  0.05598221  0.70352912    -0.23400
C3185       C  0.24498474  0.08688814  0.98537357    -0.06200
C3186       C  0.23517949  0.10948706  0.97671078    -0.00300
C3187       C  0.22647343  0.12572680  0.99888994    -0.08800
C3188       C  0.22798701  0.11931423  0.52944451    -0.06200
C3189       C  0.23912502  0.09720397  0.53765673    -0.00300
C3190       C  0.24550230  0.08029795  0.51489912    -0.08700
C3191       C  0.25552149  0.05524229  0.52248312     0.61600
H3192       H  0.25146516  0.07466331  0.96804185     0.12300
H3193       H  0.22292740  0.13199225  0.54704992     0.12300
C3194       C  0.21473029  0.14991193  0.99072510     0.61900
F3195       F  0.25608008  0.04017874  0.49742671    -0.23300
F3196       F  0.24117344  0.04416779  0.54371608    -0.20600
F3197       F  0.27876164  0.05739260  0.53368612    -0.20300
F3198       F  0.19843751  0.14667582  0.96724602    -0.20400
F3199       F  0.23222075  0.16645534  0.98232612    -0.20700
F3200       F  0.20236043  0.15972801  0.01478157    -0.23400
C3201       C  0.17257020  0.85397756  0.87649543    -0.06200
C3202       C  0.19325257  0.84648961  0.86093920    -0.00300
C3203       C  0.19350122  0.82317153  0.84687313    -0.08800
C3204       C  0.17387958  0.80747904  0.85127471    -0.06200
C3205       C  0.15384266  0.81439309  0.86831458    -0.00300
C3206       C  0.15261981  0.83840624  0.88019536    -0.08700
C3207       C  0.13080114  0.84745068  0.89726916     0.61600
H3208       H  0.17235371  0.87209529  0.88632893     0.12300
H3209       H  0.17420801  0.78926626  0.84170384     0.12300
C3210       C  0.21383484  0.81486914  0.82657372     0.61900
F3211       F  0.13386792  0.87114524  0.90763005    -0.23300
F3212       F  0.12673216  0.83261673  0.92186075    -0.20600
F3213       F  0.11077036  0.84719430  0.87845766    -0.20300
F3214       F  0.23464599  0.81121178  0.84333126    -0.20400
F3215       F  0.21788011  0.83232627  0.80472552    -0.20700
F3216       F  0.20842469  0.79309634  0.81203548    -0.23400
C3217       C  0.28438720  0.99654564  0.87612183    -0.06200
C3218       C  0.26215678  0.98416354  0.87381400    -0.00300
C3219       C  0.24050408  0.99840190  0.87546963    -0.08800
C3220       C  0.24227508  0.02385478  0.87889548    -0.06200
C3221       C  0.26431583  0.03640496  0.88031596    -0.00300
C3222       C  0.28595153  0.02235807  0.87939761    -0.08700
C3223       C  0.31063555  0.03421660  0.88188072     0.61600
H3224       H  0.30071186  0.98575145  0.87539914     0.12300
H3225       H  0.22585764  0.03438992  0.88025909     0.12300
C3226       C  0.21511841  0.98754801  0.87363633     0.61900
F3227       F  0.32900044  0.01709117  0.88222797    -0.23300
F3228       F  0.31232032  0.04753819  0.90831799    -0.20600
F3229       F  0.31423651  0.04943848  0.85754171    -0.20300
F3230       F  0.21114393  0.97262300  0.89818315    -0.20400
F3231       F  0.21224246  0.97448624  0.84716220    -0.20700
F3232       F  0.19728449  0.00525439  0.87379308    -0.23400
C3233       C  0.15072608  0.81861328  0.61806526    -0.06200
C3234       C  0.15885887  0.79476964  0.62472351    -0.00300
C3235       C  0.18414701  0.79104185  0.62793588    -0.08800
C3236       C  0.19995649  0.81088167  0.62340635    -0.06200
C3237       C  0.19193379  0.83462346  0.61614349    -0.00300
C3238       C  0.16659348  0.83858478  0.61377149    -0.08700
C3239       C  0.15594346  0.86354825  0.60674970     0.61600
H3240       H  0.13150291  0.82158683  0.61613454     0.12300
H3241       H  0.21914072  0.80781850  0.62568084     0.12300
C3242       C  0.19484477  0.76640936  0.63637003     0.61900
F3243       F  0.13104742  0.86286740  0.60430896    -0.23300
F3244       F  0.16468512  0.87201518  0.57974455    -0.20600
F3245       F  0.16187286  0.87980824  0.62948993    -0.20300
F3246       F  0.19027881  0.74987950  0.61348994    -0.20400
F3247       F  0.18492662  0.75823361  0.66293785    -0.20700
F3248       F  0.21958241  0.76748030  0.64063962    -0.23400
C3249       C  0.23906328  0.93176015  0.72556677    -0.06200
C3250       C  0.22670842  0.91371275  0.70884205    -0.00300
C3251       C  0.21196756  0.89666129  0.72397693    -0.08800
C3252       C  0.21279463  0.89629656  0.75563645    -0.06200
C3253       C  0.22739933  0.91261784  0.77208172    -0.00300
C3254       C  0.23989678  0.93137332  0.75709563    -0.08700
C3255       C  0.25550551  0.94967555  0.77419245     0.61600
H3256       H  0.24964753  0.94516039  0.71359740     0.12300
H3257       H  0.20318026  0.88228277  0.76783080     0.12300
C3258       C  0.19641814  0.87827690  0.70703256     0.61900
F3259       F  0.26722713  0.96554026  0.75503662    -0.23300
F3260       F  0.27283212  0.93753969  0.79108590    -0.20600
F3261       F  0.24126026  0.96342180  0.79311323    -0.20300
F3262       F  0.21061275  0.86321763  0.68962134    -0.20400
F3263       F  0.18022853  0.89058970  0.68869082    -0.20700
F3264       F  0.18337171  0.86366294  0.72633939    -0.23400
C3265       C  0.22249962  0.89406073  0.96986855    -0.06200
C3266       C  0.23657794  0.91366312  0.95977622    -0.00300
C3267       C  0.24665876  0.93029106  0.98103554    -0.08800
C3268       C  0.24345346  0.92352788  0.51154818    -0.06200
C3269       C  0.23254397  0.90174816  0.52078004    -0.00300
C3270       C  0.22166920  0.88612417  0.49913167    -0.08700
C3271       C  0.20785424  0.86344031  0.50824199     0.61600
H3272       H  0.21438727  0.88189260  0.95337937     0.12300
H3273       H  0.25195903  0.93506463  0.52833536     0.12300
C3274       C  0.26023530  0.95314834  0.97180215     0.61900
F3275       F  0.19137246  0.86944970  0.53009164    -0.23300
F3276       F  0.22355882  0.84599563  0.51941637    -0.20600
F3277       F  0.19529272  0.85332633  0.48415819    -0.20300
F3278       F  0.24862219  0.96443749  0.94788442    -0.20400
F3279       F  0.28345329  0.94705529  0.96368679    -0.20700
F3280       F  0.26156978  0.96989441  0.99518746    -0.23400
C3281       C  0.28178718  0.98538675  0.63559667    -0.06200
C3282       C  0.26252072  0.97473181  0.61925899    -0.00300
C3283       C  0.24556836  0.99037064  0.60488874    -0.08800
C3284       C  0.24733049  0.01569675  0.60955630    -0.06200
C3285       C  0.26589951  0.02645871  0.62686966    -0.00300
C3286       C  0.28405306  0.01104321  0.63929455    -0.08700
C3287       C  0.30543003  0.02132066  0.65676972     0.61600
H3288       H  0.29485954  0.97334976  0.64611412     0.12300
H3289       H  0.23387356  0.02744881  0.59933291     0.12300
C3290       C  0.22592998  0.98077953  0.58387840     0.61900
F3291       F  0.31993401  0.00302792  0.66856677    -0.23300
F3292       F  0.29746932  0.03549586  0.68040168    -0.20600
F3293       F  0.31941298  0.03541224  0.63797449    -0.20300
F3294       F  0.20784907  0.96988055  0.60023725    -0.20400
F3295       F  0.23559583  0.96402910  0.56417298    -0.20700
F3296       F  0.21563595  0.99926198  0.56681185    -0.23400
C3297       C  0.18179560  0.21974117  0.88096819    -0.06200
C3298       C  0.16081570  0.21298819  0.86500761    -0.00300
C3299       C  0.15770528  0.18783507  0.85701734    -0.08800
C3300       C  0.17598507  0.17091127  0.86462373    -0.06200
C3301       C  0.19716149  0.17782734  0.87989521    -0.00300
C3302       C  0.19991214  0.20273706  0.88884626    -0.08700
C3303       C  0.22152335  0.21162492  0.90720162     0.61600
H3304       H  0.18393156  0.23870355  0.88743867     0.12300
H3305       H  0.17402486  0.15192125  0.85819252     0.12300
C3306       C  0.13550426  0.17845028  0.84020982     0.61900
F3307       F  0.21831377  0.23520098  0.91782165    -0.23300
F3308       F  0.24191461  0.21156510  0.88960541    -0.20600
F3309       F  0.22506834  0.19666452  0.93188844    -0.20300
F3310       F  0.13236607  0.19126852  0.81365258    -0.20400
F3311       F  0.11538669  0.18105004  0.85803061    -0.20700
F3312       F  0.13740956  0.15392555  0.83284646    -0.23400
C3313       C  0.17874575  0.15826646  0.60696780    -0.06200
C3314       C  0.19797241  0.16497024  0.62616383    -0.00300
C3315       C  0.19728592  0.18775591  0.64130493    -0.08800
C3316       C  0.17791713  0.20356710  0.63546720    -0.06200
C3317       C  0.15914040  0.19742795  0.61536841    -0.00300
C3318       C  0.15927189  0.17424317  0.60108887    -0.08700
C3319       C  0.13958440  0.16680850  0.57892396     0.61600
H3320       H  0.17946015  0.14059670  0.59596773     0.12300
H3321       H  0.17763277  0.22137352  0.64613444     0.12300
C3322       C  0.21668446  0.19540942  0.66384537     0.61900
F3323       F  0.14404357  0.14417251  0.56617702    -0.23300
F3324       F  0.13797967  0.18376373  0.55592848    -0.20600
F3325       F  0.11776592  0.16552484  0.59355497    -0.20300
F3326       F  0.23790933  0.20023189  0.64901070    -0.20400
F3327       F  0.22046999  0.17699615  0.68464029    -0.20700
F3328       F  0.21027894  0.21627941  0.67951377    -0.23400
C3329       C  0.07517153  0.25665724  0.71700312    -0.06200
C3330       C  0.09431038  0.24830316  0.69949992    -0.00300
C3331       C  0.11538051  0.23894323  0.71366243    -0.08800
C3332       C  0.11698734  0.23958343  0.74521861    -0.06200
C3333       C  0.09800174  0.24834256  0.76282013    -0.00300
C3334       C  0.07637404  0.25639200  0.74860177    -0.08700
C3335       C  0.05487896  0.26530261  0.76642945     0.61600
H3336       H  0.05926401  0.26361451  0.70555308     0.12300
H3337       H  0.13323768  0.23330040  0.75651167     0.12300
C3338       C  0.13626204  0.22874114  0.69568335     0.61900
F3339       F  0.04567791  0.24618196  0.78299691    -0.23300
F3340       F  0.03655025  0.27393688  0.74792208    -0.20600
F3341       F  0.06176728  0.28408005  0.78556180    -0.20300
F3342       F  0.14359309  0.24546288  0.67444819    -0.20400
F3343       F  0.12906470  0.20748949  0.68130929    -0.20700
F3344       F  0.15598435  0.22330359  0.71382415    -0.23400
C3345       C  0.11520085  0.23798735  0.49224304    -0.06200
C3346       C  0.09572263  0.24035009  0.51195527    -0.00300
C3347       C  0.07289967  0.24787723  0.50006806    -0.08800
C3348       C  0.07262762  0.25082883  0.96937461    -0.06200
C3349       C  0.09181333  0.24654006  0.94987694    -0.00300
C3350       C  0.11332394  0.23580487  0.96140479    -0.08700
C3351       C  0.13499966  0.23093612  0.94166011     0.61600
H3352       H  0.13243229  0.23191597  0.50110296     0.12300
H3353       H  0.05639000  0.25893894  0.96006270     0.12300
C3354       C  0.05094620  0.25131388  0.51964049     0.61900
F3355       F  0.15520595  0.22438923  0.95834470    -0.23300
F3356       F  0.14073768  0.25172839  0.92558982    -0.20600
F3357       F  0.12975876  0.21196628  0.92207274    -0.20300
F3358       F  0.05549742  0.26957898  0.54039373    -0.20400
F3359       F  0.04561177  0.22970603  0.53421180    -0.20700
F3360       F  0.03074930  0.25806894  0.50304870    -0.23400
C3361       C  0.81366763  0.20000943  0.88179973    -0.06200
C3362       C  0.83125159  0.19614812  0.85966358    -0.00300
C3363       C  0.82925827  0.17566101  0.84052378    -0.08800
C3364       C  0.80887987  0.16037669  0.84316428    -0.06200
C3365       C  0.79074705  0.16484561  0.86454746    -0.00300
C3366       C  0.79364634  0.18447702  0.88494674    -0.08700
C3367       C  0.77606109  0.18873475  0.91026183     0.61600
H3368       H  0.81568603  0.21558909  0.89668960     0.12300
H3369       H  0.80677920  0.14487635  0.82816035     0.12300
C3370       C  0.84819697  0.17045903  0.81707349     0.61900
F3371       F  0.78415927  0.20651913  0.93015602    -0.23300
F3372       F  0.77281274  0.16734762  0.92629014    -0.20600
F3373       F  0.75426272  0.19629768  0.89838956    -0.20300
F3374       F  0.87009870  0.16596042  0.83115074    -0.20400
F3375       F  0.85047527  0.19039752  0.79822182    -0.20700
F3376       F  0.84231549  0.15026836  0.79966690    -0.23400
C3377       C  0.98141994  0.24850051  0.86575757    -0.06200
C3378       C  0.96800645  0.27025765  0.86612675    -0.00300
C3379       C  0.98067795  0.29281067  0.86394041    -0.08800
C3380       C  0.00615281  0.29244455  0.86149246    -0.06200
C3381       C  0.01949668  0.27052279  0.86054377    -0.00300
C3382       C  0.00657283  0.24793096  0.86231234    -0.08700
C3383       C  0.01856290  0.22288043  0.86018646     0.61600
H3384       H  0.97177520  0.23141590  0.86782643     0.12300
H3385       H  0.01591775  0.30952809  0.86029961     0.12300
C3386       C  0.96767164  0.31722380  0.86374396     0.61900
F3387       F  0.03357684  0.21913058  0.88479572    -0.23300
F3388       F  0.03153717  0.22125178  0.83389568    -0.20600
F3389       F  0.00196946  0.20395403  0.85966990    -0.20300
F3390       F  0.95564455  0.32037776  0.89054746    -0.20400
F3391       F  0.95140212  0.31804856  0.83999439    -0.20700
F3392       F  0.98342515  0.33665124  0.86052317    -0.23400
C3393       C  0.81473300  0.21781268  0.60020181    -0.06200
C3394       C  0.83904634  0.21246660  0.60600518    -0.00300
C3395       C  0.84570538  0.18749513  0.61102658    -0.08800
C3396       C  0.82744729  0.16951458  0.61193833    -0.06200
C3397       C  0.80304507  0.17502232  0.60690206    -0.00300
C3398       C  0.79666633  0.19971697  0.59980217    -0.08700
C3399       C  0.77106266  0.20757163  0.59160857     0.61600
H3400       H  0.80987055  0.23660887  0.59564567     0.12300
H3401       H  0.83217509  0.15074295  0.61682730     0.12300
C3402       C  0.87177133  0.17918418  0.61500625     0.61900
F3403       F  0.77019383  0.23125140  0.58068979    -0.23300
F3404       F  0.75666445  0.20672488  0.61677814    -0.20600
F3405       F  0.76173983  0.19246876  0.56933701    -0.20300
F3406       F  0.88274194  0.19159021  0.63848403    -0.20400
F3407       F  0.88427610  0.18330560  0.58876554    -0.20700
F3408       F  0.87349158  0.15448189  0.62142269    -0.23400
C3409       C  0.92836312  0.26497379  0.72056351    -0.06200
C3410       C  0.90876069  0.25708791  0.70274286    -0.00300
C3411       C  0.88853389  0.24660650  0.71736801    -0.08800
C3412       C  0.88897076  0.24406793  0.74906287    -0.06200
C3413       C  0.90807967  0.25298725  0.76689131    -0.00300
C3414       C  0.92843057  0.26317386  0.75230169    -0.08700
C3415       C  0.95044720  0.27175616  0.76999562     0.61600
H3416       H  0.94362394  0.27308612  0.70934135     0.12300
H3417       H  0.87376577  0.23597754  0.76037040     0.12300
C3418       C  0.86600097  0.23915549  0.69998726     0.61900
F3419       F  0.96973378  0.27650257  0.75139390    -0.23300
F3420       F  0.95752760  0.25390722  0.79024767    -0.20600
F3421       F  0.94518473  0.29303046  0.78534709    -0.20300
F3422       F  0.87091573  0.21887317  0.68272024    -0.20400
F3423       F  0.85834881  0.25805882  0.68158171    -0.20700
F3424       F  0.84721586  0.23328358  0.71890034    -0.23400
C3425       C  0.88147584  0.22316075  0.50493677    -0.06200
C3426       C  0.89875509  0.24024637  0.51471935    -0.00300
C3427       C  0.91578938  0.24921204  0.49387328    -0.08800
C3428       C  0.91501797  0.23924437  0.96493596    -0.06200
C3429       C  0.89424038  0.22768372  0.95326421    -0.00300
C3430       C  0.87617762  0.21997196  0.97356920    -0.08700
C3431       C  0.85411146  0.20557904  0.96341303     0.61600
H3432       H  0.86874925  0.21621213  0.52114741     0.12300
H3433       H  0.92880219  0.24486164  0.94935028     0.12300
C3434       C  0.93498848  0.26755701  0.50321232     0.61900
F3435       F  0.84449158  0.19249461  0.98705599    -0.23300
F3436       F  0.86009601  0.18904851  0.94111451    -0.20600
F3437       F  0.83659211  0.22134936  0.95265213    -0.20300
F3438       F  0.95063678  0.25698252  0.52362695    -0.20400
F3439       F  0.92445783  0.28773361  0.51634108    -0.20700
F3440       F  0.94833411  0.27546685  0.47895725    -0.23400
C3441       C  0.98990069  0.29910137  0.60663094    -0.06200
C3442       C  0.97659742  0.27740516  0.60236414    -0.00300
C3443       C  0.98939668  0.25534454  0.59593684    -0.08800
C3444       C  0.01461200  0.25611348  0.59457114    -0.06200
C3445       C  0.02799669  0.27720972  0.60128091    -0.00300
C3446       C  0.01543384  0.29935688  0.60691726    -0.08700
C3447       C  0.02864330  0.32287460  0.61463353     0.61600
H3448       H  0.98011418  0.31574743  0.61140744     0.12300
H3449       H  0.02435080  0.23946603  0.58971837     0.12300
C3450       C  0.97733748  0.23043862  0.59188347     0.61900
F3451       F  0.01289762  0.34187563  0.62052511    -0.23300
F3452       F  0.04287952  0.32978496  0.59077971    -0.20600
F3453       F  0.04290346  0.31943006  0.64000312    -0.20300
F3454       F  0.95911119  0.23171918  0.57067804    -0.20400
F3455       F  0.96815448  0.22262050  0.61900450    -0.20700
F3456       F  0.99327583  0.21269286  0.58215332    -0.23400
C3457       C  0.68014521  0.81828405  0.79757522    -0.06200
C3458       C  0.65778515  0.81172984  0.80982308    -0.00300
C3459       C  0.65415202  0.81512717  0.84129774    -0.08800
C3460       C  0.67220544  0.82691920  0.85838010    -0.06200
C3461       C  0.69316262  0.83577734  0.84511082    -0.00300
C3462       C  0.69788505  0.83037774  0.81465182    -0.08700
C3463       C  0.72114140  0.83806414  0.79979391     0.61600
H3464       H  0.68326429  0.81516571  0.77388405     0.12300
H3465       H  0.66925853  0.83103182  0.88189992     0.12300
C3466       C  0.63140633  0.80707391  0.85714942     0.61900
F3467       F  0.72415190  0.82640592  0.77243327    -0.23300
F3468       F  0.74066491  0.83222903  0.81803381    -0.20600
F3469       F  0.72075361  0.86293300  0.79472233    -0.20300
F3470       F  0.62688429  0.78282290  0.85080228    -0.20400
F3471       F  0.61211467  0.82125583  0.84782561    -0.20700
F3472       F  0.63347450  0.80930318  0.88810727    -0.23400
C3473       C  0.63613417  0.86197917  0.72686817    -0.06200
C3474       C  0.62222735  0.84680376  0.70782586    -0.00300
C3475       C  0.62136824  0.85229377  0.67666312    -0.08800
C3476       C  0.63689047  0.87055332  0.66515697    -0.06200
C3477       C  0.65319182  0.88344312  0.68388219    -0.00300
C3478       C  0.65118316  0.88054498  0.71544512    -0.08700
C3479       C  0.66528904  0.89614047  0.73769662     0.61600
H3480       H  0.63640094  0.85838768  0.75086121     0.12300
H3481       H  0.63809370  0.87300427  0.64104629     0.12300
C3482       C  0.60438921  0.83860194  0.65566660     0.61900
F3483       F  0.67604031  0.91603162  0.72409642    -0.23300
F3484       F  0.68290952  0.88211677  0.75151850    -0.20600
F3485       F  0.64985829  0.90500919  0.75937855    -0.20300
F3486       F  0.58148565  0.83841548  0.66763953    -0.20400
F3487       F  0.61216689  0.81480776  0.65195287    -0.20700
F3488       F  0.60301575  0.84955103  0.62765381    -0.23400
C3489       C  0.59310066  0.74165080  0.89513349    -0.06200
C3490       C  0.57581379  0.75670641  0.90883994    -0.00300
C3491       C  0.55777526  0.76780298  0.89066378    -0.08800
C3492       C  0.55939463  0.76567196  0.85925107    -0.06200
C3493       C  0.57812058  0.75264139  0.84542665    -0.00300
C3494       C  0.59450524  0.73917761  0.86361484    -0.08700
C3495       C  0.61390991  0.72307134  0.85007011     0.61600
H3496       H  0.60628377  0.73269142  0.90932997     0.12300
H3497       H  0.54653196  0.77527194  0.84507675     0.12300
C3498       C  0.53695097  0.78199357  0.90402345     0.61900
F3499       F  0.62818446  0.71215352  0.87195849    -0.23300
F3500       F  0.62877951  0.73672660  0.83190509    -0.20600
F3501       F  0.60321953  0.70473194  0.83312838    -0.20300
F3502       F  0.54515709  0.80411466  0.91512334    -0.20400
F3503       F  0.52662365  0.76865991  0.92694968    -0.20700
F3504       F  0.51913561  0.78677017  0.88275793    -0.23400
C3505       C  0.61311189  0.72298388  0.61143222    -0.06200
C3506       C  0.59305040  0.73282647  0.59608038    -0.00300
C3507       C  0.57410515  0.74335965  0.61288861    -0.08800
C3508       C  0.57688157  0.74526658  0.64432905    -0.06200
C3509       C  0.59812958  0.73795106  0.65908343    -0.00300
C3510       C  0.61633115  0.72589294  0.64261163    -0.08700
C3511       C  0.63979407  0.71753064  0.65725318     0.61600
H3512       H  0.62745135  0.71496174  0.59833980     0.12300
H3513       H  0.56340133  0.75460821  0.65729173     0.12300
C3514       C  0.55201222  0.75441206  0.59776895     0.61900
F3515       F  0.65247279  0.70188992  0.63869383    -0.23300
F3516       F  0.63519078  0.70523168  0.68371470    -0.20600
F3517       F  0.65422928  0.73758750  0.66334987    -0.20300
F3518       F  0.54017365  0.73669340  0.58103106    -0.20400
F3519       F  0.55885084  0.77338732  0.57920512    -0.20700
F3520       F  0.53591023  0.76364641  0.61847139    -0.23400
C3521       C  0.63848785  0.81755691  0.58937063    -0.06200
C3522       C  0.62571069  0.82851873  0.56534906    -0.00300
C3523       C  0.63241676  0.85232618  0.55627688    -0.08800
C3524       C  0.65323947  0.86292540  0.56933492    -0.06200
C3525       C  0.66738910  0.85073467  0.59129289    -0.00300
C3526       C  0.65954171  0.82758500  0.60181037    -0.08700
C3527       C  0.67337049  0.81265397  0.62520916     0.61600
H3528       H  0.63253065  0.79998651  0.59756425     0.12300
H3529       H  0.65861872  0.88101322  0.56222443     0.12300
C3530       C  0.61628824  0.87023298  0.03554025     0.61900
F3531       F  0.66433015  0.78917688  0.62804780    -0.23300
F3532       F  0.67193996  0.82372120  0.65312969    -0.20600
F3533       F  0.69718238  0.81053015  0.61680951    -0.20300
F3534       F  0.62182540  0.89487681  0.03737535    -0.20400
F3535       F  0.59224976  0.86750977  0.04275276    -0.20700
F3536       F  0.61980513  0.86274010  0.00623271    -0.23400
C3537       C  0.63992800  0.84410652  0.94585925    -0.06200
C3538       C  0.65047670  0.82703607  0.96590133    -0.00300
C3539       C  0.67452770  0.83079716  0.97590580    -0.08800
C3540       C  0.68678939  0.85146978  0.96569719    -0.06200
C3541       C  0.67698021  0.86755103  0.94393863    -0.00300
C3542       C  0.65276462  0.86429047  0.93460471    -0.08700
C3543       C  0.64030438  0.88202981  0.91333687     0.61600
H3544       H  0.62134981  0.84156886  0.93888345     0.12300
H3545       H  0.70500201  0.85438123  0.97382368     0.12300
C3546       C  0.68792985  0.81288021  0.99629915     0.61900
F3547       F  0.61554765  0.87892893  0.91322895    -0.23300
F3548       F  0.64830756  0.87842626  0.88432444    -0.20600
F3549       F  0.64512397  0.90581567  0.92221732    -0.20300
F3550       F  0.68536143  0.78933780  0.98526430    -0.20400
F3551       F  0.67623402  0.81530934  0.52920554    -0.20700
F3552       F  0.71239888  0.81781633  0.99792071    -0.23400
C3553       C  0.47892333  0.76127762  0.73740348    -0.06200
C3554       C  0.46749791  0.77698904  0.75790281    -0.00300
C3555       C  0.48211627  0.79335938  0.77497303    -0.08800
C3556       C  0.50746704  0.79372076  0.77038878    -0.06200
C3557       C  0.51889123  0.77762630  0.75022585    -0.00300
C3558       C  0.50419315  0.76096003  0.73360780    -0.08700
C3559       C  0.51501531  0.74269932  0.71185683     0.61600
H3560       H  0.46776043  0.74873614  0.72449836     0.12300
H3561       H  0.51874934  0.80590154  0.78364817     0.12300
C3562       C  0.47119168  0.80929834  0.79918748     0.61900
F3563       F  0.49761616  0.73173203  0.69378613    -0.23300
F3564       F  0.52686055  0.72447758  0.72764913    -0.20600
F3565       F  0.53104014  0.75446815  0.69331731    -0.20300
F3566       F  0.45731947  0.79511962  0.81807444    -0.20400
F3567       F  0.45689712  0.82711037  0.78608659    -0.20700
F3568       F  0.48872200  0.82074768  0.81657377    -0.23400
C3569       C  0.30694874  0.82056427  0.72291288    -0.06200
C3570       C  0.32636363  0.80835696  0.70937223    -0.00300
C3571       C  0.32630225  0.80535466  0.67760397    -0.08800
C3572       C  0.30871280  0.81759248  0.66054234    -0.06200
C3573       C  0.29185899  0.83311282  0.67403755    -0.00300
C3574       C  0.28922866  0.83258576  0.70564945    -0.08700
C3575       C  0.26699811  0.84283431  0.72080796     0.61600
H3576       H  0.30612509  0.82141228  0.74722103     0.12300
H3577       H  0.30970087  0.81711160  0.63622403     0.12300
C3578       C  0.34474990  0.78985674  0.66133721     0.61900
F3579       F  0.26626196  0.83655287  0.75095421    -0.23300
F3580       F  0.24669152  0.83323276  0.70688806    -0.20600
F3581       F  0.26635870  0.86799990  0.71898997    -0.20300
F3582       F  0.34677646  0.76749468  0.67535368    -0.20400
F3583       F  0.36686303  0.80150275  0.66148789    -0.20700
F3584       F  0.33814232  0.78556364  0.63164737    -0.23400
C3585       C  0.35108793  0.85951549  0.78061809    -0.06200
C3586       C  0.36513382  0.84660979  0.80184281    -0.00300
C3587       C  0.36479619  0.85421064  0.83224182    -0.08800
C3588       C  0.34787390  0.87205030  0.84108784    -0.06200
C3589       C  0.33107500  0.88212956  0.82053017    -0.00300
C3590       C  0.33406791  0.87727906  0.78936723    -0.08700
C3591       C  0.31969709  0.89088913  0.76535068     0.61600
H3592       H  0.35202016  0.85411698  0.75719645     0.12300
H3593       H  0.34594270  0.87601235  0.86483072     0.12300
C3594       C  0.38095955  0.84236363  0.85571190     0.61900
F3595       F  0.32835604  0.88623666  0.73680508    -0.23300
F3596       F  0.32140872  0.91576479  0.77054504    -0.20600
F3597       F  0.29576876  0.88404869  0.76554733    -0.20300
F3598       F  0.40365018  0.83833164  0.84408831    -0.20400
F3599       F  0.37115846  0.82031808  0.86453896    -0.20700
F3600       F  0.38356101  0.85719100  0.88081666    -0.23400
C3601       C  0.38131531  0.73211729  0.90778660    -0.06200
C3602       C  0.40178012  0.74371418  0.91985628    -0.00300
C3603       C  0.42052567  0.75122222  0.90055038    -0.08800
C3604       C  0.41653002  0.75008158  0.86937781    -0.06200
C3605       C  0.39479486  0.74114075  0.85738653    -0.00300
C3606       C  0.37755413  0.73049969  0.87660521    -0.08700
C3607       C  0.35411093  0.71965559  0.86479406     0.61600
H3608       H  0.36716650  0.72632163  0.92281233     0.12300
H3609       H  0.42985242  0.75769399  0.85438129     0.12300
C3610       C  0.44426429  0.76182716  0.91176169     0.61900
F3611       F  0.34511087  0.70261231  0.88472372    -0.23300
F3612       F  0.35752373  0.70794297  0.83754863    -0.20600
F3613       F  0.33726693  0.73805338  0.86109704    -0.20300
F3614       F  0.44868569  0.75665612  0.94176397    -0.20400
F3615       F  0.44403876  0.78689223  0.90782483    -0.20700
F3616       F  0.46305928  0.75203912  0.89546019    -0.23400
C3617       C  0.41549565  0.76368931  0.65246547    -0.06200
C3618       C  0.40123139  0.74778472  0.66957537    -0.00300
C3619       C  0.38542006  0.73117788  0.65457484    -0.08800
C3620       C  0.38262543  0.73331407  0.62312878    -0.06200
C3621       C  0.39515967  0.75108203  0.60686914    -0.00300
C3622       C  0.41215335  0.76631494  0.62149732    -0.08700
C3623       C  0.42543550  0.78654251  0.60508155     0.61600
H3624       H  0.42833756  0.77545309  0.66392996     0.12300
H3625       H  0.36998185  0.72172226  0.61103325     0.12300
C3626       C  0.37124924  0.71169925  0.67117947     0.61900
F3627       F  0.43912270  0.80086419  0.62450652    -0.23300
F3628       F  0.40911096  0.80166042  0.59065645    -0.20600
F3629       F  0.44071975  0.77660097  0.58414857    -0.20300
F3630       F  0.35517220  0.72230987  0.69079018    -0.20400
F3631       F  0.38696959  0.69687743  0.68715781    -0.20700
F3632       F  0.35817269  0.69697557  0.65155434    -0.23400
C3633       C  0.47929723  0.80129927  0.50933105    -0.06200
C3634       C  0.46520402  0.77856054  0.01374744    -0.00300
C3635       C  0.47955658  0.75803732  0.02280163    -0.08800
C3636       C  0.50471526  0.75998056  0.02179475    -0.06200
C3637       C  0.51646006  0.78101600  0.01179932    -0.00300
C3638       C  0.50466975  0.80158638  0.50728472    -0.08700
C3639       C  0.51711167  0.82442487  0.49580674     0.61600
H3640       H  0.46905734  0.81739936  0.50316395     0.12300
H3641       H  0.51567320  0.74429865  0.02768195     0.12300
C3642       C  0.46918729  0.73347497  0.03254699     0.61900
F3643       F  0.53005721  0.81889093  0.47031605    -0.23300
F3644       F  0.53248917  0.83362676  0.51774575    -0.20600
F3645       F  0.50080694  0.84262979  0.48828262    -0.20300
F3646       F  0.45907083  0.72151900  0.00804155    -0.20400
F3647       F  0.45210976  0.73678409  0.05444828    -0.20700
F3648       F  0.48665320  0.71818847  0.04466213    -0.23400
C3649       C  0.32511212  0.80622856  0.92464231    -0.06200
C3650       C  0.32389845  0.81033760  0.95580363    -0.00300
C3651       C  0.30569575  0.82620028  0.96692084    -0.08800
C3652       C  0.29391231  0.84172359  0.94638448    -0.06200
C3653       C  0.29723762  0.83957793  0.91525692    -0.00300
C3654       C  0.31064948  0.81944770  0.90414450    -0.08700
C3655       C  0.30945350  0.81149086  0.87140021     0.61600
H3656       H  0.33762724  0.79262961  0.91645277     0.12300
H3657       H  0.28187826  0.85578091  0.95453677     0.12300
C3658       C  0.29814994  0.82673039  0.99974167     0.61900
F3659       F  0.32268922  0.79045510  0.86639709    -0.23300
F3660       F  0.31830097  0.82955157  0.85299291    -0.20600
F3661       F  0.28575911  0.80658423  0.86345747    -0.20300
F3662       F  0.31796021  0.83876097  0.51896553    -0.20400
F3663       F  0.29037209  0.80371148  0.00799357    -0.20700
F3664       F  0.27939600  0.84293614  0.00456536    -0.23400
C3665       C  0.36821830  0.85443790  0.58573515    -0.06200
C3666       C  0.36929544  0.85301413  0.55430239    -0.00300
C3667       C  0.35598282  0.87042147  0.53723116    -0.08800
C3668       C  0.33637459  0.88220285  0.55110749    -0.06200
C3669       C  0.33230307  0.87968337  0.58203635    -0.00300
C3670       C  0.35078282  0.86892376  0.60005230    -0.08700
C3671       C  0.35189732  0.87190312  0.63393044     0.61600
H3672       H  0.37978187  0.84255373  0.59896633     0.12300
H3673       H  0.32344964  0.89236086  0.53762820     0.12300
C3674       C  0.36178985  0.87610556  0.50472326     0.61900
F3675       F  0.37258482  0.86161636  0.64617731    -0.23300
F3676       F  0.33243136  0.86083292  0.64691897    -0.20600
F3677       F  0.35184401  0.89649488  0.64116006    -0.20300
F3678       F  0.38598380  0.88180476  0.50253827    -0.20400
F3679       F  0.38508276  0.87371408  0.99701230    -0.20700
F3680       F  0.34941812  0.89211623  0.99019477    -0.23400
C3681       C  0.81255231  0.32108621  0.77149990    -0.06200
C3682       C  0.79728282  0.33685809  0.78707596    -0.00300
C3683       C  0.79601539  0.33579694  0.81882211    -0.08800
C3684       C  0.81203011  0.32038676  0.83425308    -0.06200
C3685       C  0.82880928  0.30612087  0.81874186    -0.00300
C3686       C  0.82836505  0.30546312  0.78682727    -0.08700
C3687       C  0.84406546  0.28816409  0.76889398     0.61600
H3688       H  0.81281059  0.32192112  0.74714349     0.12300
H3689       H  0.81235627  0.32036145  0.85864103     0.12300
C3690       C  0.77815596  0.35099933  0.83640109     0.61900
F3691       F  0.83710272  0.28724336  0.73889474    -0.23300
F3692       F  0.84213258  0.26483692  0.78053892    -0.20600
F3693       F  0.86781318  0.29574484  0.77013316    -0.20300
F3694       F  0.77548448  0.34225875  0.86537781    -0.20400
F3695       F  0.75579043  0.35026577  0.82245728    -0.20700
F3696       F  0.78604381  0.37493691  0.83799818    -0.23400
C3697       C  0.83336025  0.36165384  0.69364732    -0.06200
C3698       C  0.81105026  0.36699572  0.67996359    -0.00300
C3699       C  0.80533571  0.35564416  0.65181752    -0.08800
C3700       C  0.82137190  0.33835330  0.63981373    -0.06200
C3701       C  0.84315532  0.33194229  0.65420427    -0.00300
C3702       C  0.84961934  0.34446958  0.68143726    -0.08700
C3703       C  0.87330088  0.33992115  0.69816114     0.61600
H3704       H  0.83751036  0.37026495  0.71502718     0.12300
H3705       H  0.81660553  0.32939264  0.61884430     0.12300
C3706       C  0.78199084  0.36060896  0.63451317     0.61900
F3707       F  0.87504847  0.35330286  0.72457014    -0.23300
F3708       F  0.89241737  0.34672055  0.68030588    -0.20600
F3709       F  0.87525934  0.31547945  0.70572622    -0.20300
F3710       F  0.77647529  0.38524821  0.63540298    -0.20400
F3711       F  0.78372158  0.35390337  0.60455156    -0.20700
F3712       F  0.76338659  0.34728456  0.64682946    -0.23400
C3713       C  0.75678741  0.43321459  0.88591850    -0.06200
C3714       C  0.74611181  0.41449131  0.90270876    -0.00300
C3715       C  0.73356817  0.39559979  0.88702319    -0.08800
C3716       C  0.73186747  0.39653794  0.85519289    -0.06200
C3717       C  0.74342837  0.41478616  0.83838289    -0.00300
C3718       C  0.75607525  0.43358573  0.85422037    -0.08700
C3719       C  0.76905755  0.45410037  0.83810686     0.61600
H3720       H  0.76657513  0.44736312  0.89798186     0.12300
H3721       H  0.72244140  0.38221209  0.84303090     0.12300
C3722       C  0.72314977  0.37381963  0.90350451     0.61900
F3723       F  0.77564441  0.47282475  0.85753862    -0.23300
F3724       F  0.75412458  0.46394444  0.81629942    -0.20600
F3725       F  0.78979741  0.44523770  0.82502753    -0.20300
F3726       F  0.71444547  0.35616756  0.88383868    -0.20400
F3727       F  0.70429337  0.38141700  0.92122733    -0.20700
F3728       F  0.74075883  0.36308422  0.92139536    -0.23400
C3729       C  0.71638168  0.38215246  0.60086052    -0.06200
C3730       C  0.73055664  0.40118417  0.58953061    -0.00300
C3731       C  0.73664799  0.42105433  0.60870738    -0.08800
C3732       C  0.73051530  0.41976327  0.63952523    -0.06200
C3733       C  0.71780801  0.39971284  0.65128374    -0.00300
C3734       C  0.70895099  0.38168088  0.63098330    -0.08700
C3735       C  0.69144339  0.36177765  0.63987130     0.61600
H3736       H  0.71084146  0.36747687  0.58585071     0.12300
H3737       H  0.73703595  0.43362955  0.65501428     0.12300
C3738       C  0.75052621  0.44287162  0.59701292     0.61900
F3739       F  0.67241835  0.36117237  0.61946367    -0.23300
F3740       F  0.68185490  0.36573668  0.66796896    -0.20600
F3741       F  0.70298492  0.33938724  0.63956899    -0.20300
F3742       F  0.73658670  0.45506339  0.57588613    -0.20400
F3743       F  0.77168759  0.43519544  0.58384161    -0.20700
F3744       F  0.75638083  0.45921014  0.61977093    -0.23400
C3745       C  0.85553613  0.37196958  0.52006792    -0.06200
C3746       C  0.83918704  0.38294557  0.53997213    -0.00300
C3747       C  0.84421287  0.38175209  0.57121495    -0.08800
C3748       C  0.86199282  0.36519811  0.58163136    -0.06200
C3749       C  0.87577531  0.35112185  0.56159156    -0.00300
C3750       C  0.87429915  0.35664444  0.53055025    -0.08700
C3751       C  0.89297966  0.34708320  0.50899708     0.61600
H3752       H  0.85258707  0.37409069  0.49608446     0.12300
H3753       H  0.86428676  0.36218598  0.60555060     0.12300
C3754       C  0.83206965  0.39906894  0.59298016     0.61900
F3755       F  0.89157702  0.32205520  0.50697715    -0.23300
F3756       F  0.91569933  0.35349584  0.51943062    -0.20600
F3757       F  0.88992673  0.35670686  0.48041267    -0.20300
F3758       F  0.80745714  0.39600905  0.59241516    -0.20400
F3759       F  0.83724213  0.42285087  0.58480096    -0.20700
F3760       F  0.84015250  0.39558942  0.62223425    -0.23400
C3761       C  0.83041171  0.32822861  0.96591539    -0.06200
C3762       C  0.82127372  0.34870828  0.95064970    -0.00300
C3763       C  0.83204163  0.35558490  0.92281405    -0.08800
C3764       C  0.85099741  0.34125502  0.91142999    -0.06200
C3765       C  0.85915511  0.32004500  0.92596160    -0.00300
C3766       C  0.84901761  0.31374254  0.95429772    -0.08700
C3767       C  0.85587364  0.29075477  0.97163351     0.61600
H3768       H  0.82251994  0.32317245  0.98717615     0.12300
H3769       H  0.85866630  0.34576198  0.88986216     0.12300
C3770       C  0.82361888  0.37748916  0.90436594     0.61900
F3771       F  0.85004718  0.29265787  0.00176493    -0.23300
F3772       F  0.88038301  0.28647738  0.97007460    -0.20600
F3773       F  0.84339981  0.27103958  0.95979664    -0.20300
F3774       F  0.83275502  0.39890452  0.42856000    -0.20400
F3775       F  0.79896812  0.37640286  0.89972112    -0.20700
F3776       F  0.83422552  0.37823732  0.87633016    -0.23400
C3777       C  0.69927544  0.69373847  0.76796872    -0.06200
C3778       C  0.69366230  0.67000577  0.75774479    -0.00300
C3779       C  0.66917755  0.66493260  0.74969164    -0.08800
C3780       C  0.65219372  0.68423885  0.74939118    -0.06200
C3781       C  0.65821525  0.70819488  0.75814395    -0.00300
C3782       C  0.68198580  0.71264782  0.76928172    -0.08700
C3783       C  0.68931198  0.73695055  0.78334956     0.61600
H3784       H  0.71756208  0.69747591  0.77537324     0.12300
H3785       H  0.63391029  0.68076398  0.74180460     0.12300
C3786       C  0.66069929  0.63951901  0.74093033     0.61900
F3787       F  0.71074598  0.73506107  0.79944299    -0.23300
F3788       F  0.67188057  0.74473974  0.80318190    -0.20600
F3789       F  0.69236949  0.75430525  0.76116005    -0.20300
F3790       F  0.66323801  0.62380751  0.76506327    -0.20400
F3791       F  0.67414155  0.63115372  0.71727377    -0.20700
F3792       F  0.63672134  0.63914188  0.73196758    -0.23400
C3793       C  0.77824283  0.51679019  0.73364676    -0.06200
C3794       C  0.76159546  0.52894482  0.75219262    -0.00300
C3795       C  0.74370202  0.51477423  0.76659522    -0.08800
C3796       C  0.74247921  0.48945285  0.76099818    -0.06200
C3797       C  0.75903855  0.47699066  0.74265752    -0.00300
C3798       C  0.77733692  0.49106817  0.72859518    -0.08700
C3799       C  0.79525065  0.47935142  0.70745777     0.61600
H3800       H  0.79159300  0.52777310  0.72235284     0.12300
H3801       H  0.72827184  0.47909133  0.77149295     0.12300
C3802       C  0.72579553  0.52609610  0.78820236     0.61900
F3803       F  0.80922671  0.49662606  0.69307085    -0.23300
F3804       F  0.78309823  0.46600302  0.68558094    -0.20600
F3805       F  0.81052106  0.46409554  0.72348766    -0.20300
F3806       F  0.70790224  0.53812477  0.77219190    -0.20400
F3807       F  0.73742085  0.54238036  0.80728831    -0.20700
F3808       F  0.71492321  0.50857536  0.80592610    -0.23400
C3809       C  0.81323232  0.68274820  0.64866176    -0.06200
C3810       C  0.82711661  0.70101261  0.66259822    -0.00300
C3811       C  0.82494799  0.70506225  0.69390284    -0.08800
C3812       C  0.81094021  0.68891511  0.71083595    -0.06200
C3813       C  0.79890074  0.66900557  0.69750046    -0.00300
C3814       C  0.79909735  0.66648779  0.66555499    -0.08700
C3815       C  0.78480811  0.64678978  0.64907498     0.61600
H3816       H  0.81475895  0.68029949  0.62456189     0.12300
H3817       H  0.81052995  0.69103021  0.73506610     0.12300
C3818       C  0.83815781  0.72569130  0.70983746     0.61900
F3819       F  0.78392617  0.65088615  0.61833768    -0.23300
F3820       F  0.76138497  0.64648761  0.65930252    -0.20600
F3821       F  0.79534942  0.62419980  0.65374448    -0.20300
F3822       F  0.83733867  0.74672179  0.69260490    -0.20400
F3823       F  0.86186484  0.71897484  0.71483125    -0.20700
F3824       F  0.82784528  0.73098112  0.73728167    -0.23400
C3825       C  0.84862768  0.64428777  0.77997117    -0.06200
C3826       C  0.83393469  0.62904832  0.79738699    -0.00300
C3827       C  0.84040639  0.62519387  0.82791584    -0.08800
C3828       C  0.85794190  0.64069139  0.84159787    -0.06200
C3829       C  0.87035140  0.65845004  0.82479337    -0.00300
C3830       C  0.86749549  0.65814193  0.79302966    -0.08700
C3831       C  0.88267335  0.67429564  0.77306927     0.61600
H3832       H  0.84431386  0.64665292  0.75629788     0.12300
H3833       H  0.86089408  0.64003389  0.86571096     0.12300
C3834       C  0.83009474  0.60367119  0.84491271     0.61900
F3835       F  0.88532055  0.66375398  0.74496855    -0.23300
F3836       F  0.90546150  0.67750355  0.78549466    -0.20600
F3837       F  0.87174960  0.69682220  0.76963032    -0.20300
F3838       F  0.83776197  0.58230084  0.83137975    -0.20400
F3839       F  0.80524190  0.60398133  0.84427176    -0.20700
F3840       F  0.83775471  0.60348906  0.87465557    -0.23400
C3841       C  0.66896850  0.66880044  0.98533561    -0.06200
C3842       C  0.68604441  0.66999790  0.00888501    -0.00300
C3843       C  0.68443631  0.68634025  0.53170479    -0.08800
C3844       C  0.66650547  0.70418982  0.52773043    -0.06200
C3845       C  0.65102324  0.70682222  0.00166552    -0.00300
C3846       C  0.65131353  0.68694996  0.98137967    -0.08700
C3847       C  0.63384513  0.68556195  0.95498923     0.61600
H3848       H  0.67006812  0.65382926  0.96941370     0.12300
H3849       H  0.66423758  0.71832844  0.54457119     0.12300
C3850       C  0.70024105  0.68648301  0.55981803     0.61900
F3851       F  0.63856498  0.66578701  0.93648182    -0.23300
F3852       F  0.64208578  0.70865630  0.43679241    -0.20600
F3853       F  0.61054934  0.68327283  0.96528771    -0.20300
F3854       F  0.72391800  0.69103661  0.55229017    -0.20400
F3855       F  0.70091352  0.66804736  0.07224783    -0.20700
F3856       F  0.69549518  0.70840585  0.07714764    -0.23400
C3857       C  0.70695916  0.62714198  0.89275156    -0.06200
C3858       C  0.71719036  0.60868587  0.91069103    -0.00300
C3859       C  0.72928263  0.58894373  0.89636743    -0.08800
C3860       C  0.73301262  0.58997540  0.86498897    -0.06200
C3861       C  0.72482024  0.60975388  0.84772947    -0.00300
C3862       C  0.71013988  0.62775042  0.86138288    -0.08700
C3863       C  0.69749835  0.64727385  0.84282980     0.61600
H3864       H  0.69724603  0.64176948  0.90372644     0.12300
H3865       H  0.74362123  0.57606094  0.85395889     0.12300
C3866       C  0.73964891  0.56767604  0.91414213     0.61900
F3867       F  0.68096630  0.66022549  0.85966772    -0.23300
F3868       F  0.68515226  0.63636899  0.81919463    -0.20600
F3869       F  0.71408827  0.66364340  0.83166192    -0.20300
F3870       F  0.72141938  0.55596199  0.92943102    -0.20400
F3871       F  0.75680953  0.57612360  0.93437880    -0.20700
F3872       F  0.75054240  0.55059763  0.89573063    -0.23400
C3873       C  0.72243627  0.60551223  0.61087406    -0.06200
C3874       C  0.73903027  0.59038177  0.59613206    -0.00300
C3875       C  0.75321076  0.57381536  0.61333543    -0.08800
C3876       C  0.75150698  0.57457375  0.64476678    -0.06200
C3877       C  0.73657070  0.59132849  0.65977655    -0.00300
C3878       C  0.72074805  0.60616730  0.64242845    -0.08700
C3879       C  0.70179973  0.62213137  0.65668966     0.61600
H3880       H  0.71117546  0.61749765  0.59741785     0.12300
H3881       H  0.76292968  0.56262521  0.65807955     0.12300
C3882       C  0.77048242  0.55559092  0.59919472     0.61900
F3883       F  0.68853416  0.63513502  0.63553922    -0.23300
F3884       F  0.71235671  0.63883059  0.67616968    -0.20600
F3885       F  0.68611170  0.60715407  0.67196815    -0.20300
F3886       F  0.79029776  0.56772459  0.58796544    -0.20400
F3887       F  0.75897566  0.54289174  0.57627257    -0.20700
F3888       F  0.77881623  0.53858277  0.61986581    -0.23400
C3889       C  0.77864409  0.52286476  0.98948723    -0.06200
C3890       C  0.75668308  0.53209631  0.00042303    -0.00300
C3891       C  0.73898927  0.51417815  0.50965787    -0.08800
C3892       C  0.74428751  0.48921372  0.51059911    -0.06200
C3893       C  0.76685175  0.48141700  0.00168411    -0.00300
C3894       C  0.78392525  0.49769690  0.98942184    -0.08700
C3895       C  0.80707742  0.48866965  0.97530727     0.61600
H3896       H  0.79160791  0.53554272  0.98034771     0.12300
H3897       H  0.73129072  0.47669410  0.52000934     0.12300
C3898       C  0.71414520  0.52228241  0.52027251     0.61900
F3899       F  0.82058775  0.50765070  0.96368534    -0.23300
F3900       F  0.80173216  0.47269291  0.95201269    -0.20600
F3901       F  0.82105562  0.47688150  0.99674915    -0.20300
F3902       F  0.70202234  0.53396962  0.49703964    -0.20400
F3903       F  0.71630587  0.53772657  0.54481044    -0.20700
F3904       F  0.69993994  0.50276803  0.52897402    -0.23400
C3905       C  0.83009389  0.64490907  0.95695367    -0.06200
C3906       C  0.80933742  0.63723398  0.94139690    -0.00300
C3907       C  0.80390906  0.64766964  0.91284496    -0.08800
C3908       C  0.81784377  0.66728252  0.90275603    -0.06200
C3909       C  0.83758419  0.67642844  0.91934428    -0.00300
C3910       C  0.84437119  0.66440637  0.94673403    -0.08700
C3911       C  0.86601146  0.67201743  0.96595652     0.61600
H3912       H  0.83406343  0.63668093  0.97857086     0.12300
H3913       H  0.81304175  0.67572281  0.88150728     0.12300
C3914       C  0.78271692  0.63944444  0.89333774     0.61900
F3915       F  0.86575423  0.66173099  0.49301590    -0.23300
F3916       F  0.86440903  0.69655216  0.97323424    -0.20600
F3917       F  0.88704828  0.66756407  0.95051203    -0.20300
F3918       F  0.76198065  0.65143198  0.90196090    -0.20400
F3919       F  0.77948410  0.61446631  0.89577272    -0.20700
F3920       F  0.78651352  0.64479164  0.86333937    -0.23400
C3921       C  0.82615468  0.65097999  0.56040215    -0.06200
C3922       C  0.81033297  0.66296976  0.53997622    -0.00300
C3923       C  0.81691181  0.68649100  0.52946306    -0.08800
C3924       C  0.83873978  0.69675467  0.53969184    -0.06200
C3925       C  0.85367459  0.68564958  0.56177974    -0.00300
C3926       C  0.84758938  0.66186630  0.57158930    -0.08700
C3927       C  0.86349874  0.64782176  0.59351140     0.61600
H3928       H  0.82152752  0.63282069  0.56801574     0.12300
H3929       H  0.84370294  0.71453656  0.53118247     0.12300
C3930       C  0.80054783  0.70260882  0.00654842     0.61900
F3931       F  0.86156720  0.65766291  0.62204644    -0.23300
F3932       F  0.88723944  0.64892373  0.58441547    -0.20600
F3933       F  0.85703468  0.62341289  0.59496474    -0.20300
F3934       F  0.80958789  0.72598304  0.00269233    -0.20400
F3935       F  0.77741793  0.70493640  0.01750853    -0.20700
F3936       F  0.79982065  0.69146679  0.97861796    -0.23400
C3937       C  0.17694485  0.69246215  0.78575498    -0.06200
C3938       C  0.18833311  0.67245574  0.79974104    -0.00300
C3939       C  0.18877914  0.67106292  0.83170242    -0.08800
C3940       C  0.17505769  0.68802394  0.84807191    -0.06200
C3941       C  0.16142779  0.70613347  0.83349290    -0.00300
C3942       C  0.16378613  0.70961904  0.80217855    -0.08700
C3943       C  0.15222708  0.73112614  0.78595516     0.61600
H3944       H  0.17732161  0.69403367  0.76147946     0.12300
H3945       H  0.17367792  0.68629101  0.87226295     0.12300
C3946       C  0.20388706  0.65234361  0.84863620     0.61900
F3947       F  0.16227392  0.73473292  0.75793556    -0.23300
F3948       F  0.15557974  0.75231940  0.80253401    -0.20600
F3949       F  0.12786533  0.72696695  0.78192177    -0.20300
F3950       F  0.22719643  0.65283057  0.83801658    -0.20400
F3951       F  0.19429747  0.62920358  0.84489746    -0.20700
F3952       F  0.20486072  0.65725762  0.87920981    -0.23400
C3953       C  0.13695129  0.64622673  0.71738989    -0.06200
C3954       C  0.15286949  0.63307238  0.69907550    -0.00300
C3955       C  0.14691191  0.62993144  0.66827075    -0.08800
C3956       C  0.12764329  0.64371632  0.65577220    -0.06200
C3957       C  0.11423874  0.66013831  0.67347180    -0.00300
C3958       C  0.11728309  0.65921783  0.70512135    -0.08700
C3959       C  0.10101554  0.67296069  0.72642190     0.61600
H3960       H  0.14074106  0.64768328  0.74132139     0.12300
H3961       H  0.12479279  0.64372954  0.63163499     0.12300
C3962       C  0.16092723  0.61217440  0.64896988     0.61900
F3963       F  0.09347260  0.65735891  0.74889366    -0.23300
F3964       F  0.08067427  0.68202257  0.71199023    -0.20600
F3965       F  0.11361734  0.69215035  0.73933243    -0.20300
F3966       F  0.15074414  0.60980972  0.62054296    -0.20400
F3967       F  0.16095998  0.58939245  0.66241030    -0.20700
F3968       F  0.18444201  0.61997186  0.64595477    -0.23400
C3969       C  0.28712537  0.69569542  0.74413713    -0.06200
C3970       C  0.29204747  0.67103419  0.75054257    -0.00300
C3971       C  0.31543488  0.66493998  0.76190308    -0.08800
C3972       C  0.33268912  0.68378064  0.76628316    -0.06200
C3973       C  0.32758360  0.70848201  0.76012470    -0.00300
C3974       C  0.30420081  0.71449172  0.74856775    -0.08700
C3975       C  0.29689978  0.74050102  0.74029790     0.61600
H3976       H  0.26943481  0.70028882  0.73537029     0.12300
H3977       H  0.35043281  0.67931771  0.77501347     0.12300
C3978       C  0.32230028  0.63888099  0.77008473     0.61900
F3979       F  0.27457331  0.74143304  0.72611195    -0.23300
F3980       F  0.31347963  0.75037471  0.72077759    -0.20600
F3981       F  0.29554202  0.75471177  0.76599976    -0.20300
F3982       F  0.32233301  0.62446159  0.74449449    -0.20400
F3983       F  0.30608325  0.62962909  0.79053962    -0.20700
F3984       F  0.34505678  0.63753028  0.78308056    -0.23400
C3985       C  0.18330598  0.64434014  0.58435822    -0.06200
C3986       C  0.17442550  0.63370043  0.55755571    -0.00300
C3987       C  0.15100570  0.64010005  0.54758035    -0.08800
C3988       C  0.13947361  0.66005442  0.56148181    -0.06200
C3989       C  0.15048153  0.67364976  0.58501718    -0.00300
C3990       C  0.17256404  0.66489405  0.59753295    -0.08700
C3991       C  0.18600001  0.67769387  0.62317226     0.61600
H3992       H  0.20050803  0.63800008  0.59306438     0.12300
H3993       H  0.12186275  0.66555809  0.55327280     0.12300
C3994       C  0.13817326  0.62615278  0.52259676     0.61900
F3995       F  0.20826672  0.66719623  0.62913825    -0.23300
F3996       F  0.17288018  0.67658255  0.64935384    -0.20600
F3997       F  0.19000528  0.70177512  0.61554424    -0.20300
F3998       F  0.13972305  0.60133033  0.52814280    -0.20400
F3999       F  0.14841089  0.63122075  0.49520653    -0.20700
F4000       F  0.11400456  0.63229776  0.52068211    -0.23400
C4001       C  0.16141070  0.65451737  0.93094024    -0.06200
C4002       C  0.17474121  0.66545707  0.95469540    -0.00300
C4003       C  0.16522598  0.68664430  0.96876869    -0.08800
C4004       C  0.14310138  0.69583017  0.95833270    -0.06200
C4005       C  0.13117059  0.68651685  0.93256574    -0.00300
C4006       C  0.13975920  0.66454064  0.91963242    -0.08700
C4007       C  0.12617344  0.65126245  0.89461030     0.61600
H4008       H  0.16817696  0.63785492  0.92085540     0.12300
H4009       H  0.13574187  0.71186745  0.96923783     0.12300
C4010       C  0.17703111  0.69975106  0.49579268     0.61900
F4011       F  0.12800983  0.66385645  0.86784430    -0.23300
F4012       F  0.10216530  0.64903154  0.90218771    -0.20600
F4013       F  0.13516073  0.62796019  0.88997116    -0.20300
F4014       F  0.20019680  0.70590740  0.48758073    -0.20400
F4015       F  0.17766116  0.68504737  0.52100447    -0.20700
F4016       F  0.16542343  0.72119356  0.50369474    -0.23400
C4017       C  0.31748657  0.66552589  0.00479437    -0.06200
C4018       C  0.29625411  0.67208649  0.98918419    -0.00300
C4019       C  0.29318416  0.69679959  0.97997574    -0.08800
C4020       C  0.31114442  0.71390092  0.98771257    -0.06200
C4021       C  0.33140747  0.70760645  0.00529834    -0.00300
C4022       C  0.33473917  0.68289402  0.01398398    -0.08700
C4023       C  0.36268502  0.67848331  0.51149568     0.61600
H4024       H  0.32329468  0.65191474  0.49866421     0.12300
H4025       H  0.30896160  0.73279044  0.98096380     0.12300
C4026       C  0.27076305  0.70582466  0.96347768     0.61900
F4027       F  0.36396732  0.65325444  0.50948995    -0.23300
F4028       F  0.36931954  0.68493668  0.54054304    -0.20600
F4029       F  0.37705656  0.67715316  0.01979786    -0.20300
F4030       F  0.24939157  0.71068265  0.49747296    -0.20400
F4031       F  0.26483877  0.69021394  0.94007629    -0.20700
F4032       F  0.27407748  0.72887274  0.95135343    -0.23400
C4033       C  0.23882705  0.57374132  0.88439227    -0.06200
C4034       C  0.24892798  0.59387767  0.89951079    -0.00300
C4035       C  0.26071820  0.61233611  0.88268477    -0.08800
C4036       C  0.26077990  0.61053579  0.85106525    -0.06200
C4037       C  0.24894408  0.59141523  0.83597499    -0.00300
C4038       C  0.23908384  0.57190746  0.85284549    -0.08700
C4039       C  0.22806716  0.54948075  0.83793173     0.61600
H4040       H  0.23009988  0.55962848  0.89743771     0.12300
H4041       H  0.26849453  0.62507751  0.83777824     0.12300
C4042       C  0.27151699  0.63481025  0.89774816     0.61900
F4043       F  0.22914704  0.52949778  0.85697207    -0.23300
F4044       F  0.24040936  0.54341478  0.81209009    -0.20600
F4045       F  0.20418088  0.55399479  0.83070735    -0.20300
F4046       F  0.29107217  0.62812434  0.91544059    -0.20400
F4047       F  0.25434210  0.64596405  0.91540754    -0.20700
F4048       F  0.27938502  0.65179707  0.87700516    -0.23400
C4049       C  0.25786494  0.59526565  0.59921209    -0.06200
C4050       C  0.26831400  0.61620993  0.58643020    -0.00300
C4051       C  0.27680904  0.63511850  0.60569175    -0.08800
C4052       C  0.27217838  0.63362000  0.63666213    -0.06200
C4053       C  0.26012057  0.61357936  0.64917924    -0.00300
C4054       C  0.25356811  0.59360859  0.63044184    -0.08700
C4055       C  0.24073534  0.57143138  0.64306663     0.61600
H4056       H  0.25150647  0.58092751  0.58427652     0.12300
H4057       H  0.27726566  0.64869263  0.65127765     0.12300
C4058       C  0.28974941  0.65750438  0.59379002     0.61900
F4059       F  0.23460521  0.55477338  0.62077738    -0.23300
F4060       F  0.21979605  0.57862752  0.65718309    -0.20600
F4061       F  0.25560930  0.55972936  0.66363218    -0.20300
F4062       F  0.27305380  0.67446217  0.58371346    -0.20400
F4063       F  0.30480496  0.65113899  0.57043028    -0.20700
F4064       F  0.30381589  0.66832525  0.61604272    -0.23400
C4065       C  0.19924303  0.33282317  0.66647237    -0.06200
C4066       C  0.19301793  0.33214143  0.69692886    -0.00300
C4067       C  0.17776629  0.31355000  0.70753420    -0.08800
C4068       C  0.16516712  0.29948069  0.68634169    -0.06200
C4069       C  0.16900080  0.30211906  0.65530169    -0.00300
C4070       C  0.18842066  0.31682758  0.64548421    -0.08700
C4071       C  0.19770113  0.31574316  0.61359138     0.61600
H4072       H  0.21226861  0.34628983  0.65922639     0.12300
H4073       H  0.15124875  0.28718384  0.69394815     0.12300
C4074       C  0.17417866  0.30917844  0.74085825     0.61900
F4075       F  0.21787225  0.33030223  0.60991190    -0.23300
F4076       F  0.18022591  0.32357145  0.59368696    -0.20600
F4077       F  0.20399094  0.29193519  0.60668747    -0.20300
F4078       F  0.16485712  0.32978260  0.75408931    -0.20400
F4079       F  0.19606178  0.30374718  0.75438312    -0.20700
F4080       F  0.15858803  0.28992788  0.74612769    -0.23400
C4081       C  0.13376817  0.36791117  0.76716058    -0.06200
C4082       C  0.14921897  0.38166273  0.78590385    -0.00300
C4083       C  0.14415087  0.38247476  0.81697372    -0.08800
C4084       C  0.12756426  0.36552767  0.82916117    -0.06200
C4085       C  0.11535498  0.34838048  0.81080264    -0.00300
C4086       C  0.11693113  0.35112687  0.77908977    -0.08700
C4087       C  0.10184850  0.33548281  0.75785575     0.61600
H4088       H  0.13700698  0.36807763  0.74316730     0.12300
H4089       H  0.12562680  0.36426171  0.85332110     0.12300
C4090       C  0.15603304  0.40166441  0.83663337     0.61900
F4091       F  0.10179368  0.34482457  0.72892534    -0.23300
F4092       F  0.07827350  0.33484027  0.76760506    -0.20600
F4093       F  0.11083078  0.31195099  0.75680121    -0.20300
F4094       F  0.14934438  0.42456890  0.82642284    -0.20400
F4095       F  0.18071352  0.39969189  0.83511715    -0.20700
F4096       F  0.14930612  0.39957471  0.86640292    -0.23400
C4097       C  0.20158586  0.49194831  0.73826913    -0.06200
C4098       C  0.22365775  0.47971347  0.74326424    -0.00300
C4099       C  0.24509684  0.49411159  0.74550393    -0.08800
C4100       C  0.24325022  0.51967811  0.74370780    -0.06200
C4101       C  0.22123981  0.53208907  0.73958124    -0.00300
C4102       C  0.19990646  0.51781430  0.73638966    -0.08700
C4103       C  0.17545186  0.52949542  0.73093285     0.61600
H4104       H  0.18543285  0.48098689  0.73597081     0.12300
H4105       H  0.25955183  0.53034812  0.74597235     0.12300
C4106       C  0.27030679  0.48317974  0.74895375     0.61900
F4107       F  0.15757997  0.51220644  0.72615493    -0.23300
F4108       F  0.17626963  0.54422617  0.70570044    -0.20600
F4109       F  0.16910340  0.54330823  0.75569392    -0.20300
F4110       F  0.27476720  0.46733196  0.72540283    -0.20400
F4111       F  0.27240600  0.47100052  0.77603576    -0.20700
F4112       F  0.28824433  0.50079085  0.74871706    -0.23400
C4113       C  0.15549056  0.36583236  0.94249779    -0.06200
C4114       C  0.17694912  0.37293026  0.92858287    -0.00300
C4115       C  0.18369744  0.36106691  0.90140399    -0.08800
C4116       C  0.17007026  0.34116178  0.89105307    -0.06200
C4117       C  0.14932237  0.33301209  0.90576568    -0.00300
C4118       C  0.14133587  0.34621853  0.93161958    -0.08700
C4119       C  0.11828247  0.33997904  0.94821277     0.61600
H4120       H  0.15054660  0.37494836  0.96315717     0.12300
H4121       H  0.17592762  0.33167083  0.87103650     0.12300
C4122       C  0.20580801  0.36821260  0.88351909     0.61900
F4123       F  0.11497455  0.35467367  0.97324147    -0.23300
F4124       F  0.11905118  0.31601197  0.95804081    -0.20600
F4125       F  0.09858810  0.34340383  0.92933704    -0.20300
F4126       F  0.22611460  0.35716624  0.89558578    -0.20400
F4127       F  0.20865517  0.39331321  0.88380799    -0.20700
F4128       F  0.20373818  0.36080306  0.85379564    -0.23400
C4129       C  0.16483783  0.36186120  0.55000082    -0.06200
C4130       C  0.17901517  0.35068798  0.52754671    -0.00300
C4131       C  0.17082343  0.32841098  0.51457082    -0.08800
C4132       C  0.14927089  0.31826840  0.52501356    -0.06200
C4133       C  0.13715527  0.32748308  0.55040254    -0.00300
C4134       C  0.14428320  0.35052181  0.56208703    -0.08700
C4135       C  0.13149281  0.36260361  0.58822711     0.61600
H4136       H  0.17058743  0.37923591  0.55927629     0.12300
H4137       H  0.14290674  0.30144662  0.51485134     0.12300
C4138       C  0.18504024  0.31428317  0.49109457     0.61900
F4139       F  0.13839127  0.38677432  0.59179186    -0.23300
F4140       F  0.13697439  0.35044765  0.61468425    -0.20600
F4141       F  0.10684650  0.36221786  0.58321790    -0.20300
F4142       F  0.20805277  0.30967096  0.50197970    -0.20400
F4143       F  0.19200922  0.31773805  0.96912144    -0.20700
F4144       F  0.18579210  0.28430839  0.99672406    -0.23400
C4145       C  0.25516612  0.42340616  0.88893421    -0.06200
C4146       C  0.26913231  0.40482846  0.90228314    -0.00300
C4147       C  0.28026256  0.38709371  0.88359557    -0.08800
C4148       C  0.27445813  0.38682594  0.85270685    -0.06200
C4149       C  0.25860491  0.40393452  0.84006317    -0.00300
C4150       C  0.24975105  0.42328342  0.85787956    -0.08700
C4151       C  0.23448687  0.44343585  0.84410504     0.61600
H4152       H  0.24707732  0.43706116  0.90332119     0.12300
H4153       H  0.28152319  0.37258367  0.83830485     0.12300
C4154       C  0.29870481  0.36897807  0.89579185     0.61900
F4155       F  0.22649491  0.45980846  0.86557192    -0.23300
F4156       F  0.21457994  0.43370298  0.82950820    -0.20600
F4157       F  0.24807927  0.45612405  0.82355808    -0.20300
F4158       F  0.28800233  0.35193971  0.91422672    -0.20400
F4159       F  0.31628535  0.38147081  0.91184429    -0.20700
F4160       F  0.30992027  0.35634194  0.87284738    -0.23400
C4161       C  0.23686861  0.43732971  0.60227778    -0.06200
C4162       C  0.24956548  0.41902663  0.58694817    -0.00300
C4163       C  0.26125248  0.40021645  0.60379412    -0.08800
C4164       C  0.25840472  0.39972242  0.63528397    -0.06200
C4165       C  0.24437561  0.41716418  0.65007457    -0.00300
C4166       C  0.23418688  0.43678586  0.63367733    -0.08700
C4167       C  0.22040954  0.45696453  0.64942985     0.61600
H4168       H  0.22836395  0.45173603  0.58928830     0.12300
H4169       H  0.26615986  0.38503638  0.64852357     0.12300
C4170       C  0.27549424  0.37994212  0.58874367     0.61900
F4171       F  0.21426186  0.47571152  0.62993493    -0.23300
F4172       F  0.23450784  0.46671076  0.67234981    -0.20600
F4173       F  0.19943641  0.44767484  0.66137723    -0.20300
F4174       F  0.29520137  0.38973177  0.57431340    -0.20400
F4175       F  0.26096206  0.36777647  0.56813115    -0.20700
F4176       F  0.28401169  0.36293215  0.60929068    -0.23400
C4177       C  0.23718641  0.49394919  0.01580394    -0.06200
C4178       C  0.22479600  0.48244002  0.99196184    -0.00300
C4179       C  0.21377395  0.49662046  0.49927968    -0.08800
C4180       C  0.21600823  0.52222707  0.50148879    -0.06200
C4181       C  0.22514938  0.53366420  0.99761975    -0.00300
C4182       C  0.23733284  0.51931855  0.01919836    -0.08700
C4183       C  0.24936215  0.53077901  0.04646967     0.61600
H4184       H  0.24701256  0.48279264  0.03189484     0.12300
H4185       H  0.20121834  0.53281586  0.51034057     0.12300
C4186       C  0.19110956  0.48434790  0.51064218     0.61900
F4187       F  0.25763786  0.51342454  0.06672704    -0.23300
F4188       F  0.23263568  0.54515977  0.06088532    -0.20600
F4189       F  0.26872836  0.54490380  0.03787077    -0.20300
F4190       F  0.19702525  0.46784510  0.53303820    -0.20400
F4191       F  0.17957580  0.47233343  0.48717808    -0.20700
F4192       F  0.17504924  0.50102310  0.52258067    -0.23400
C4193       C  0.66860269  0.16842205  0.71968510    -0.06200
C4194       C  0.64822422  0.17662364  0.70356543    -0.00300
C4195       C  0.64239884  0.16516003  0.67550069    -0.08800
C4196       C  0.65848031  0.14770312  0.66374929    -0.06200
C4197       C  0.67970108  0.14093951  0.67905582    -0.00300
C4198       C  0.68419873  0.15057898  0.70833705    -0.08700
C4199       C  0.70603748  0.14341691  0.72738065     0.61600
H4200       H  0.67263091  0.17632523  0.74152026     0.12300
H4201       H  0.65519908  0.14011490  0.64156790     0.12300
C4202       C  0.61955673  0.17098423  0.65764910     0.61900
F4203       F  0.70236655  0.14814935  0.75759753    -0.23300
F4204       F  0.72590742  0.15673860  0.71861213    -0.20600
F4205       F  0.71072068  0.11870239  0.72435577    -0.20300
F4206       F  0.61825878  0.19575238  0.65176211    -0.20400
F4207       F  0.59966701  0.16376596  0.67386010    -0.20700
F4208       F  0.61867503  0.15886258  0.63027788    -0.23400
C4209       C  0.62779064  0.14334591  0.78056016    -0.06200
C4210       C  0.61812580  0.16152839  0.79952592    -0.00300
C4211       C  0.62356393  0.16047284  0.83068776    -0.08800
C4212       C  0.64112148  0.14380385  0.84100789    -0.06200
C4213       C  0.65310026  0.12778559  0.82145482    -0.00300
C4214       C  0.64507878  0.12623514  0.79119790    -0.08700
C4215       C  0.65401849  0.10598083  0.77088647     0.61600
H4216       H  0.62305101  0.14369250  0.75685154     0.12300
H4217       H  0.64678427  0.14451895  0.86436649     0.12300
C4218       C  0.61285943  0.17832241  0.85295379     0.61900
F4219       F  0.64737678  0.08368416  0.78281994    -0.23300
F4220       F  0.67877572  0.10664238  0.76881266    -0.20600
F4221       F  0.64431923  0.10774609  0.74213166    -0.20300
F4222       F  0.61079255  0.16751388  0.88091292    -0.20400
F4223       F  0.59005389  0.18568352  0.84392439    -0.20700
F4224       F  0.62760528  0.19860899  0.85545801    -0.23400
C4225       C  0.67393356  0.29644384  0.76752589    -0.06200
C4226       C  0.65493324  0.29690073  0.74641778    -0.00300
C4227       C  0.65194715  0.31785947  0.72798981    -0.08800
C4228       C  0.66802902  0.33768101  0.73154875    -0.06200
C4229       C  0.68729784  0.33704224  0.75225215    -0.00300
C4230       C  0.68992766  0.31630176  0.77118969    -0.08700
C4231       C  0.70879445  0.31554709  0.79617028     0.61600
H4232       H  0.67590477  0.28046080  0.78165847     0.12300
H4233       H  0.66608924  0.35363354  0.71742569     0.12300
C4234       C  0.63284067  0.31866159  0.70334377     0.61900
F4235       F  0.70441106  0.29684450  0.81633327    -0.23300
F4236       F  0.70848683  0.33732853  0.81201799    -0.20600
F4237       F  0.73140127  0.31192034  0.78422557    -0.20300
F4238       F  0.61020659  0.32050544  0.71578379    -0.20400
F4239       F  0.63417729  0.29759021  0.68622737    -0.20700
F4240       F  0.63597035  0.33839481  0.68433772    -0.23400
C4241       C  0.65758115  0.14942525  0.93474110    -0.06200
C4242       C  0.67288188  0.16078217  0.91370883    -0.00300
C4243       C  0.66820583  0.18541418  0.90558307    -0.08800
C4244       C  0.64847051  0.19729846  0.91840475    -0.06200
C4245       C  0.63325763  0.18620693  0.93967107    -0.00300
C4246       C  0.63783968  0.16161472  0.94785151    -0.08700
C4247       C  0.62190063  0.14797979  0.96968266     0.61600
H4248       H  0.66093120  0.13054426  0.94063102     0.12300
H4249       H  0.64496558  0.21594334  0.91169052     0.12300
C4250       C  0.68368347  0.19964937  0.88361041     0.61900
F4251       F  0.62950528  0.12333233  0.47466995    -0.23300
F4252       F  0.59802603  0.15021828  0.96079778    -0.20600
F4253       F  0.62845288  0.15921673  0.49864703    -0.20300
F4254       F  0.68021405  0.19079598  0.85471803    -0.20400
F4255       F  0.70764138  0.19761089  0.89184425    -0.20700
F4256       F  0.67815247  0.22433770  0.88325589    -0.23400
C4257       C  0.67535186  0.18332722  0.52439986    -0.06200
C4258       C  0.65937893  0.19840043  0.54010660    -0.00300
C4259       C  0.66122229  0.20035397  0.57184004    -0.08800
C4260       C  0.67823359  0.18580092  0.58691898    -0.06200
C4261       C  0.69305804  0.16943480  0.57135870    -0.00300
C4262       C  0.69212385  0.16851567  0.53945427    -0.08700
C4263       C  0.70853047  0.15210239  0.52113864     0.61600
H4264       H  0.67382004  0.18234675  0.50009970     0.12300
H4265       H  0.67924639  0.18625760  0.61127524     0.12300
C4266       C  0.64555619  0.21769777  0.58984376     0.61900
F4267       F  0.71107786  0.16405467  0.99307097    -0.23300
F4268       F  0.70157251  0.12796878  0.52409358    -0.20600
F4269       F  0.73208794  0.15482301  0.53096359    -0.20300
F4270       F  0.62210726  0.20916821  0.59029451    -0.20400
F4271       F  0.64597732  0.24070675  0.57708819    -0.20700
F4272       F  0.65362048  0.21991479  0.61931380    -0.23400
C4273       C  0.65863031  0.33277545  0.00159877    -0.06200
C4274       C  0.66347867  0.30782316  0.00513254    -0.00300
C4275       C  0.68791170  0.29832688  0.50851028    -0.08800
C4276       C  0.70598033  0.31624891  0.50584674    -0.06200
C4277       C  0.70184272  0.34295560  0.00233457    -0.00300
C4278       C  0.67709158  0.35059775  0.00076336    -0.08700
C4279       C  0.66953318  0.37731331  0.99845236     0.61600
H4280       H  0.63998971  0.33824584  0.99899142     0.12300
H4281       H  0.72470701  0.31099052  0.50815710     0.12300
C4282       C  0.69579453  0.27233722  0.51606733     0.61900
F4283       F  0.67718335  0.38987695  0.02387378    -0.23300
F4284       F  0.64476098  0.38002908  0.99636411    -0.20600
F4285       F  0.67785217  0.38531853  0.47083023    -0.20300
F4286       F  0.69303165  0.25992511  0.99071594    -0.20400
F4287       F  0.68214135  0.26325780  0.53936578    -0.20700
F4288       F  0.71970368  0.27132277  0.52528647    -0.23400
C4289       C  0.61571244  0.28938006  0.88588771    -0.06200
C4290       C  0.59688254  0.28023835  0.90340216    -0.00300
C4291       C  0.57689563  0.26894402  0.88859990    -0.08800
C4292       C  0.57764633  0.26527033  0.85713579    -0.06200
C4293       C  0.59779984  0.27204904  0.84033295    -0.00300
C4294       C  0.61656859  0.28548840  0.85464264    -0.08700
C4295       C  0.63814573  0.29473052  0.83744402     0.61600
H4296       H  0.63081840  0.29808376  0.89726822     0.12300
H4297       H  0.56327401  0.25540386  0.84576621     0.12300
C4298       C  0.55556995  0.25943013  0.90598723     0.61900
F4299       F  0.65088036  0.31219474  0.85366896    -0.23300
F4300       F  0.63063559  0.30532772  0.81072339    -0.20600
F4301       F  0.65349189  0.27546282  0.83156924    -0.20300
F4302       F  0.54508781  0.27857651  0.92131428    -0.20400
F4303       F  0.56316002  0.24171636  0.92606627    -0.20700
F4304       F  0.53815897  0.24913414  0.88733036    -0.23400
C4305       C  0.56596035  0.23807721  0.60258223    -0.06200
C4306       C  0.58047505  0.25635152  0.58977391    -0.00300
C4307       C  0.59174202  0.27356116  0.60939959    -0.08800
C4308       C  0.58994008  0.27017069  0.64088742    -0.06200
C4309       C  0.57730142  0.25042904  0.65360612    -0.00300
C4310       C  0.56391162  0.23482477  0.63387020    -0.08700
C4311       C  0.54743983  0.21459580  0.64508450     0.61600
H4312       H  0.55656032  0.22556347  0.58767227     0.12300
H4313       H  0.59913669  0.28266383  0.65589159     0.12300
C4314       C  0.60597375  0.29517505  0.59760744     0.61900
F4315       F  0.53318303  0.20493657  0.62220175    -0.23300
F4316       F  0.53214548  0.22369637  0.66677626    -0.20600
F4317       F  0.56104772  0.19568712  0.65690142    -0.20300
F4318       F  0.59129899  0.30940193  0.57937544    -0.20400
F4319       F  0.62550480  0.28701305  0.58138516    -0.20700
F4320       F  0.61463881  0.30993361  0.62064921    -0.23400
C4321       C  0.30772985  0.19280382  0.77891220    -0.06200
C4322       C  0.32314554  0.20963681  0.79311521    -0.00300
C4323       C  0.32206060  0.21313636  0.82453400    -0.08800
C4324       C  0.30851736  0.19661177  0.84127595    -0.06200
C4325       C  0.29629052  0.17701025  0.82740985    -0.00300
C4326       C  0.29475042  0.17575080  0.79550385    -0.08700
C4327       C  0.28044672  0.15625966  0.77862360     0.61600
H4328       H  0.30819307  0.19105297  0.75464756     0.12300
H4329       H  0.30880212  0.19805649  0.86557748     0.12300
C4330       C  0.33483575  0.23418587  0.84031579     0.61900
F4331       F  0.27821348  0.16145211  0.74822880    -0.23300
F4332       F  0.25754536  0.15492676  0.79018272    -0.20600
F4333       F  0.29174915  0.13382219  0.78124450    -0.20300
F4334       F  0.33060299  0.25561281  0.82465684    -0.20400
F4335       F  0.35931890  0.22989686  0.84202218    -0.20700
F4336       F  0.32659463  0.23735767  0.86934394    -0.23400
C4337       C  0.36759198  0.16000315  0.67513813    -0.06200
C4338       C  0.36569795  0.16436156  0.70585505    -0.00300
C4339       C  0.35311860  0.14680124  0.72327445    -0.08800
C4340       C  0.33721846  0.13033604  0.70827465    -0.06200
C4341       C  0.33663276  0.12826744  0.67664963    -0.00300
C4342       C  0.35498393  0.14087906  0.66079705    -0.08700
C4343       C  0.36149360  0.13686580  0.62854964     0.61600
H4344       H  0.37888687  0.17202031  0.66194727     0.12300
H4345       H  0.32448338  0.11970897  0.72112094     0.12300
C4346       C  0.35717013  0.14463526  0.75691168     0.61900
F4347       F  0.38610920  0.13322094  0.62663608    -0.23300
F4348       F  0.35561038  0.15788771  0.61325434    -0.20600
F4349       F  0.35039892  0.11691687  0.61554364    -0.20300
F4350       F  0.34978488  0.16542961  0.77150477    -0.20400
F4351       F  0.38147833  0.14113571  0.76262825    -0.20700
F4352       F  0.34477453  0.12499344  0.76877768    -0.23400
C4353       C  0.30641192  0.30285617  0.72718904    -0.06200
C4354       C  0.33047070  0.30872668  0.73470200    -0.00300
C4355       C  0.33553763  0.33280697  0.74548732    -0.08800
C4356       C  0.31622224  0.34950461  0.74906807    -0.06200
C4357       C  0.29221788  0.34299211  0.74269473    -0.00300
C4358       C  0.28730496  0.31943047  0.73093948    -0.08700
C4359       C  0.26198113  0.31186611  0.72175724     0.61600
H4360       H  0.30245498  0.28480444  0.71845548     0.12300
H4361       H  0.31962359  0.36776663  0.75754942     0.12300
C4362       C  0.36090314  0.34095416  0.75388179     0.61900
F4363       F  0.26148880  0.28930795  0.70758332    -0.23300
F4364       F  0.25246838  0.32886049  0.70194406    -0.20600
F4365       F  0.24777799  0.31035456  0.74699795    -0.20300
F4366       F  0.37547732  0.33986054  0.72888054    -0.20400
F4367       F  0.37013373  0.32604259  0.77629413    -0.20700
F4368       F  0.36144079  0.36476101  0.76450440    -0.23400
C4369       C  0.47814433  0.25224850  0.76053254    -0.06200
C4370       C  0.46506520  0.23237609  0.74865426    -0.00300
C4371       C  0.47795356  0.21111766  0.73978015    -0.08800
C4372       C  0.50344595  0.21101731  0.74256359    -0.06200
C4373       C  0.51638742  0.23131211  0.75373677    -0.00300
C4374       C  0.50331915  0.25211651  0.76367599    -0.08700
C4375       C  0.51548859  0.27433296  0.77789797     0.61600
H4376       H  0.46840611  0.26842922  0.76729947     0.12300
H4377       H  0.51358464  0.19532268  0.73494944     0.12300
C4378       C  0.46520941  0.18905440  0.72628022     0.61900
F4379       F  0.49908441  0.28957639  0.79182662    -0.23300
F4380       F  0.52697431  0.28789956  0.75611624    -0.20600
F4381       F  0.53196047  0.26691036  0.79957119    -0.20300
F4382       F  0.45128140  0.19620343  0.70182406    -0.20400
F4383       F  0.45070213  0.17831316  0.74760666    -0.20700
F4384       F  0.48135244  0.17154555  0.71648018    -0.23400
C4385       C  0.31531845  0.19947747  0.54490573    -0.06200
C4386       C  0.33931728  0.19203986  0.54036798    -0.00300
C4387       C  0.34683679  0.16854471  0.55018433    -0.08800
C4388       C  0.32954018  0.15314013  0.56286568    -0.06200
C4389       C  0.30700572  0.16192030  0.57168628    -0.00300
C4390       C  0.29916252  0.18501802  0.56151708    -0.08700
C4391       C  0.27362767  0.19361573  0.56692850     0.61600
H4392       H  0.30961609  0.21706927  0.53634248     0.12300
H4393       H  0.33445758  0.13471603  0.56900217     0.12300
C4394       C  0.37310648  0.16005316  0.54984897     0.61900
F4395       F  0.27068783  0.19876463  0.59710433    -0.23300
F4396       F  0.25749368  0.17553487  0.55830620    -0.20600
F4397       F  0.26826437  0.21448510  0.55062876    -0.20300
F4398       F  0.38677871  0.17486354  0.56864958    -0.20400
F4399       F  0.38256412  0.16087310  0.52141019    -0.20700
F4400       F  0.37561526  0.13624150  0.55989249    -0.23400
C4401       C  0.34902477  0.14953297  0.90290051    -0.06200
C4402       C  0.33313199  0.13814641  0.92311949    -0.00300
C4403       C  0.33620737  0.14255975  0.95425559    -0.08800
C4404       C  0.35182047  0.16124586  0.96350882    -0.06200
C4405       C  0.36673984  0.17381363  0.94351773    -0.00300
C4406       C  0.36601523  0.16725346  0.91268119    -0.08700
C4407       C  0.38275599  0.17921367  0.89035594     0.61600
H4408       H  0.34667247  0.14605509  0.87900019     0.12300
H4409       H  0.35082021  0.16728353  0.98675708     0.12300
C4410       C  0.32262971  0.12885075  0.97839232     0.61900
F4411       F  0.37975918  0.16963693  0.86169472    -0.23300
F4412       F  0.40637725  0.17538669  0.89940193    -0.20600
F4413       F  0.37845503  0.20404381  0.88891854    -0.20300
F4414       F  0.31140593  0.10805248  0.96734057    -0.20400
F4415       F  0.30555892  0.14405545  0.99098251    -0.20700
F4416       F  0.33867722  0.12156823  0.00069336    -0.23400
C4417       C  0.29507355  0.32132737  0.51544888    -0.06200
C4418       C  0.29951372  0.34699670  0.00566959    -0.00300
C4419       C  0.32440912  0.35220152  0.00166890    -0.08800
C4420       C  0.34067538  0.33251125  0.99958567    -0.06200
C4421       C  0.33312688  0.30797776  0.00098010    -0.00300
C4422       C  0.31130246  0.30160941  0.51458846    -0.08700
C4423       C  0.30243380  0.27639552  0.52365068     0.61600
H4424       H  0.27634157  0.31780410  0.52042618     0.12300
H4425       H  0.35950530  0.33625453  0.99554160     0.12300
C4426       C  0.33409070  0.37810532  0.99877174     0.61900
F4427       F  0.28016376  0.27745670  0.53734367    -0.23300
F4428       F  0.31846742  0.26605377  0.54402276    -0.20600
F4429       F  0.30014575  0.26457712  0.98411036    -0.20300
F4430       F  0.32927574  0.39049037  0.52451389    -0.20400
F4431       F  0.32556408  0.38860831  0.97247591    -0.20700
F4432       F  0.35902036  0.37866241  0.99792706    -0.23400
C4433       C  0.38010876  0.28398972  0.84487785    -0.06200
C4434       C  0.40012567  0.27116466  0.83393429    -0.00300
C4435       C  0.41793001  0.26269849  0.85449127    -0.08800
C4436       C  0.41344781  0.26429721  0.88538275    -0.06200
C4437       C  0.39231923  0.27488744  0.89641646    -0.00300
C4438       C  0.37586951  0.28605635  0.87603796    -0.08700
C4439       C  0.35401611  0.29997503  0.88701330     0.61600
H4440       H  0.36690508  0.29085957  0.82886980     0.12300
H4441       H  0.42589050  0.25578038  0.90108777     0.12300
C4442       C  0.44146737  0.25154145  0.84415074     0.61900
F4443       F  0.34290102  0.31280977  0.86390283    -0.23300
F4444       F  0.36098019  0.31657170  0.90897712    -0.20600
F4445       F  0.33736606  0.28396142  0.89880679    -0.20300
F4446       F  0.45020558  0.26443483  0.81990025    -0.20400
F4447       F  0.43794184  0.22739053  0.83602076    -0.20700
F4448       F  0.45885236  0.25236861  0.86673860    -0.23400
C4449       C  0.41838250  0.25256469  0.63562778    -0.06200
C4450       C  0.39788982  0.26519770  0.64525390    -0.00300
C4451       C  0.38334936  0.27787227  0.62417148    -0.08800
C4452       C  0.38876484  0.27573954  0.59354960    -0.06200
C4453       C  0.40802099  0.26125488  0.58344504    -0.00300
C4454       C  0.42378923  0.25028121  0.60487591    -0.08700
C4455       C  0.44614553  0.23626763  0.59569290     0.61600
H4456       H  0.42939188  0.24329426  0.65235549     0.12300
H4457       H  0.37699225  0.28436022  0.57711479     0.12300
C4458       C  0.36216467  0.29350781  0.63390089     0.61900
F4459       F  0.46100617  0.23133772  0.62018725    -0.23300
F4460       F  0.45922929  0.24990876  0.57541423    -0.20600
F4461       F  0.43966236  0.21421394  0.58270815    -0.20300
F4462       F  0.36948597  0.30945789  0.65640683    -0.20400
F4463       F  0.34385916  0.27883911  0.64449738    -0.20700
F4464       F  0.35294992  0.30726278  0.61030470    -0.23400
C4465       C  0.51047808  0.26043866  0.97391253    -0.06200
C4466       C  0.52261924  0.24009674  0.98590823    -0.00300
C4467       C  0.50927771  0.21740924  0.49115343    -0.08800
C4468       C  0.48387187  0.21849322  0.48907745    -0.06200
C4469       C  0.47122706  0.24162891  0.98211317    -0.00300
C4470       C  0.48519612  0.26134180  0.97094179    -0.08700
C4471       C  0.47380249  0.28319669  0.95528330     0.61600
H4472       H  0.52100716  0.27614122  0.96742326     0.12300
H4473       H  0.47323403  0.20288741  0.49581083     0.12300
C4474       C  0.52113075  0.19417630  0.50273503     0.61900
F4475       F  0.49070483  0.29680714  0.93990699    -0.23300
F4476       F  0.46303506  0.29835899  0.97607676    -0.20600
F4477       F  0.45680443  0.27528280  0.93452913    -0.20300
F4478       F  0.53486785  0.19934861  0.52812074    -0.20400
F4479       F  0.53559465  0.18429319  0.48069483    -0.20700
F4480       F  0.50435058  0.17661863  0.51048915    -0.23400
loop_ 
_geom_bond_atom_site_label_1 
_geom_bond_atom_site_label_2 
_geom_bond_distance 
_geom_bond_site_symmetry_2 
_ccdc_geom_bond_type 
O1           C16   1.257       .  A
O1           Al9   1.885       .  S
C2           O12   1.263       .  A
C2            O3   1.267       .  A
C2         C2197   1.478       .  S
O3           Al5   1.931       .  S
O4            C6   1.256       .  A
O4           Al5   1.883       .  S
Al5          O13   1.887       .  S
Al5        O2255   1.921       .  S
Al5        O2254   1.774       .  S
C6           O19   1.267       .  A
C6         C2165   1.487       .  S
O7         C2257   1.266       .  A
O7           Al9   1.921   1_556  S
O8           C21   1.265       .  A
O8          Al18   1.895   1_554  S
Al9          O22   1.942       .  S
Al9        O2259   1.949   1_554  S
Al9          O14   1.777   1_554  S
O10        C2257   1.264       .  A
O10         Al18   1.928       .  S
O11        C2260   1.264       .  A
O11         Al18   1.932       .  S
O12       Al2258   1.883       .  S
O13          C20   1.254       .  A
O14         Al18   1.778       .  S
O14       Al2245   1.774       .  S
O15          C16   1.267   1_556  A
O15       Al2245   1.934       .  S
C16        C2146   1.478       .  S
C17        O2247   1.267       .  A
C17        O2250   1.260       .  A
C17        C2229   1.496       .  S
Al18       O2252   1.891       .  S
O19       Al2249   1.945       .  S
C20        O2251   1.263       .  A
C20        C2181   1.492       .  S
C21          O22   1.269       .  A
C21        C2213   1.491       .  S
O23          C38   1.262       .  A
O23         Al31   1.890       .  S
C24          O34   1.264       .  A
C24          O25   1.261       .  A
C24        C2210   1.480       .  S
O25         Al27   1.899       .  S
O26          C28   1.261       .  A
O26         Al27   1.911       .  S
Al27         O35   1.882       .  S
Al27         O37   1.898       .  S
Al27         O36   1.781       .  S
C28          O41   1.256       .  A
C28        C2098   1.495       .  S
O29          C39   1.268       .  A
O29         Al31   1.917       .  S
O30          C43   1.260       .  A
O30         Al40   1.917       .  S
Al31         O44   1.901       .  S
Al31         O41   1.922       .  S
Al31         O36   1.792       .  S
O32          C39   1.274       .  A
O32         Al40   1.941       .  S
O33          C42   1.264       .  A
O33         Al40   1.946       .  S
O34         Al40   1.912       .  S
O35          C42   1.255       .  A
O36         Al40   1.787       .  S
O37          C38   1.264       .  A
C38        C2082   1.475       .  S
C39        C2130   1.502       .  S
C42        C2114   1.506       .  S
C43          O44   1.255       .  A
C43        C2194   1.478       .  S
O45          C60   1.268       .  A
O45         Al53   1.918       .  S
C46          O56   1.260       .  A
C46          O47   1.264       .  A
C46        C2050   1.492       .  S
O47         Al49   1.932       .  S
O48          C50   1.274       .  A
O48         Al49   1.945       .  S
Al49       O2297   1.983       .  S
Al49       O2299   1.929       .  S
Al49         O58   1.761       .  S
C50        O2303   1.265       .  A
C50        C2226   1.495       .  S
O51          C61   1.268       .  A
O51       Al2293   1.972       .  S
O52          C65   1.268   1_556  A
O52       Al2302   1.938       .  S
Al53         O66   1.883       .  S
Al53         O63   1.913   1_554  S
Al53       O2291   1.987   1_554  S
Al53       O2298   1.781   1_554  S
O54          C61   1.249       .  A
O54         Al62   1.859       .  S
O55          C64   1.249       .  A
O55         Al62   1.851       .  S
O56         Al62   1.903       .  S
O57        C2304   1.281   1_556  A
O57       Al2289   2.001       .  S
O58         Al62   1.757       .  S
O58       Al2293   1.774       .  S
O59          C60   1.270       .  A
O59       Al2289   1.926   1_554  S
C60        C2066   1.502       .  S
C61        C2005   1.492       .  S
Al62       O2292   1.922       .  S
O63        C2290   1.270       .  A
C64        O2297   1.279       .  A
C64        C2034   1.499       .  S
C65          O66   1.260       .  A
C65        C2018   1.477       .  S
O67          C82   1.256       .  A
O67         Al75   1.887       .  S
C68          O78   1.269       .  A
C68          O69   1.263       .  A
C68        C2053   1.487       .  S
O69         Al71   1.907       .  S
O70          C72   1.260       .  A
O70         Al71   1.897       .  S
Al71         O79   1.918       .  S
Al71         O81   1.898       .  S
Al71         O80   1.780       .  S
C72          O85   1.268       .  A
C72        C1970   1.497       .  S
O73          C83   1.266       .  A
O73         Al75   1.932       .  S
O74          C87   1.267       .  A
O74         Al84   1.911       .  S
Al75         O88   1.929       .  S
Al75         O85   1.950       .  S
Al75         O80   1.791       .  S
O76          C83   1.258       .  A
O76         Al84   1.902       .  S
O77          C86   1.256       .  A
O77         Al84   1.904       .  S
O78         Al84   1.922       .  S
O79          C86   1.263       .  A
O80         Al84   1.787       .  S
O81          C82   1.262       .  A
C82        C1954   1.492       .  S
C83        C2133   1.498       .  S
C86        C1986   1.486       .  S
C87          O88   1.268       .  A
C87        C2069   1.501       .  S
O89         C104   1.275       .  A
O89         Al97   1.942       .  S
C90         O100   1.267       .  A
C90          O91   1.269       .  A
C90        C1906   1.489       .  S
O91         Al93   1.924       .  S
O92          C94   1.261       .  A
O92         Al93   1.902       .  S
Al93       O2341   1.931       .  S
Al93       O2343   1.892       .  S
Al93        O102   1.769       .  S
C94        O2347   1.262       .  A
C94        C1938   1.484       .  S
O95         C105   1.278       .  A
O95       Al2337   1.988       .  S
O96         C109   1.263   1_556  A
O96       Al2346   1.933       .  S
Al97        O110   1.876       .  S
Al97        O107   1.902   1_554  S
Al97       O2335   1.974   1_554  S
Al97       O2342   1.773   1_554  S
O98         C105   1.249       .  A
O98        Al106   1.855       .  S
O99         C108   1.264       .  A
O99        Al106   1.895       .  S
O100       Al106   1.928       .  S
O101       C2348   1.266   1_556  A
O101      Al2333   1.938       .  S
O102       Al106   1.760       .  S
O102      Al2337   1.772       .  S
O103        C104   1.266       .  A
O103      Al2333   1.897   1_554  S
C104       C1922   1.490       .  S
C105       C1874   1.499       .  S
Al106      O2336   1.936       .  S
O107       C2334   1.260       .  A
C108       O2341   1.265       .  A
C108       C2178   1.493       .  S
C109        O110   1.255       .  A
C109       C1890   1.488       .  S
O111        C126   1.270       .  A
O111       Al119   1.932       .  S
C112        O122   1.268       .  A
C112        O113   1.265       .  A
C112       C1909   1.476       .  S
O113       Al115   1.895       .  S
O114        C116   1.257       .  A
O114       Al115   1.907       .  S
Al115       O123   1.922       .  S
Al115       O125   1.887       .  S
Al115       O124   1.798       .  S
C116        O129   1.259       .  A
C116       C1842   1.489       .  S
O117        C127   1.268       .  A
O117       Al119   1.940       .  S
O118        C131   1.260       .  A
O118       Al128   1.917       .  S
Al119       O132   1.876       .  S
Al119       O129   1.924       .  S
Al119       O124   1.805       .  S
O120        C127   1.259       .  A
O120       Al128   1.896       .  S
O121        C130   1.256       .  A
O121       Al128   1.909       .  S
O122       Al128   1.935       .  S
O123        C130   1.257       .  A
O124       Al128   1.794       .  S
O125        C126   1.260       .  A
C126       C1826   1.474       .  S
C127       C1858   1.504       .  S
C130       C2117   1.488       .  S
C131        O132   1.252       .  A
C131       C1925   1.477       .  S
O133        C148   1.275       .  A
O133       Al141   1.935       .  S
C134        O144   1.262       .  A
C134        O135   1.268       .  A
C134       C1810   1.490       .  S
O135      Al2377   1.932   1_554  S
O136       C2378   1.264       .  A
O136      Al2377   1.922       .  S
Al137       O145   1.924       .  S
Al137       O147   1.896       .  S
Al137      O2375   1.927       .  S
Al137      O2376   1.890       .  S
Al137       O146   1.768       .  S
C138        O151   1.264       .  A
C138       O2376   1.254       .  A
C138       C1941   1.495       .  S
O139        C149   1.275       .  A
O139      Al2381   1.990   1_554  S
O140        C153   1.264       .  A
O140      Al2390   1.933       .  S
Al141       O154   1.889       .  S
Al141       O151   1.912       .  S
Al141      O2379   1.976       .  S
Al141       O146   1.779       .  S
O142        C149   1.252       .  A
O142       Al150   1.849       .  S
O143       C2392   1.261       .  A
O143       Al150   1.887   1_556  S
O144       Al150   1.924       .  S
O145        C152   1.267       .  A
O146      Al2390   1.758       .  S
O147        C148   1.268       .  A
C148       C1794   1.485       .  S
C149       C1746   1.494       .  S
Al150      O2380   1.935   1_554  S
Al150      O2386   1.760   1_554  S
C152       O2383   1.261       .  A
C152       C1778   1.493       .  S
C153        O154   1.257       .  A
C153       C1762   1.503       .  S
O155        C170   1.258       .  A
O155       Al163   1.884       .  S
C156        O166   1.265       .  A
C156        O157   1.265       .  A
C156       C1813   1.484       .  S
O157       Al159   1.916       .  S
O158        C160   1.261       .  A
O158       Al159   1.914       .  S
Al159       O167   1.904       .  S
Al159       O169   1.909       .  S
Al159       O168   1.782       .  S
C160        O173   1.261       .  A
C160       C1714   1.493       .  S
O161        C171   1.266       .  A
O161       Al163   1.922       .  S
O162        C175   1.263       .  A
O162       Al172   1.911       .  S
Al163       O176   1.909       .  S
Al163       O173   1.925       .  S
Al163       O168   1.792       .  S
O164        C171   1.269       .  A
O164       Al172   1.928       .  S
O165        C174   1.262       .  A
O165       Al172   1.942       .  S
O166       Al172   1.912       .  S
O167        C174   1.260       .  A
O168       Al172   1.785       .  S
O169        C170   1.265       .  A
C170       C1698   1.481       .  S
C171       C1861   1.510       .  S
C174       C1730   1.511       .  S
C175        O176   1.261       .  A
C175       C1797   1.482       .  S
O177        C192   1.269       .  A
O177       Al185   1.926       .  S
C178        O188   1.270       .  A
C178        O179   1.265       .  A
C178       C1618   1.492       .  S
O179       Al181   1.912       .  S
O180        C182   1.256       .  A
O180       Al181   1.895       .  S
Al181      O2429   1.932       .  S
Al181      O2431   1.892       .  S
Al181       O190   1.770       .  S
C182       O2435   1.262       .  A
C182       C1650   1.489       .  S
O183        C193   1.272       .  A
O183      Al2425   1.962       .  S
O184        C197   1.268       .  A
O184      Al2434   1.953   1_554  S
Al185       O198   1.875       .  S
Al185       O195   1.890   1_554  S
Al185      O2423   1.962   1_554  S
Al185      O2430   1.769       .  S
O186        C193   1.245       .  A
O186       Al194   1.839       .  S
O187        C196   1.262       .  A
O187       Al194   1.893       .  S
O188       Al194   1.930       .  S
O189       C2436   1.268       .  A
O189      Al2421   1.934       .  S
O190       Al194   1.756       .  S
O190      Al2425   1.772       .  S
O191        C192   1.271       .  A
O191      Al2421   1.912       .  S
C192       C1634   1.491       .  S
C193       C1666   1.479       .  S
Al194      O2424   1.952       .  S
O195       C2422   1.261   1_556  A
C196       O2429   1.266       .  A
C196       C1602   1.472       .  S
C197        O198   1.255       .  A
C197       C1682   1.498       .  S
O199        C214   1.259       .  A
O199       Al207   1.898       .  S
C200        O210   1.270       .  A
C200        O201   1.265       .  A
C200       C1621   1.486       .  S
O201       Al203   1.906       .  S
O202        C204   1.260       .  A
O202       Al203   1.905       .  S
Al203       O211   1.911       .  S
Al203       O213   1.909       .  S
Al203       O212   1.783       .  S
C204        O217   1.264       .  A
C204       C1586   1.497       .  S
O205        C215   1.271       .  A
O205       Al207   1.946       .  S
O206        C219   1.267       .  A
O206       Al216   1.921       .  S
Al207       O220   1.902       .  S
Al207       O217   1.939       .  S
Al207       O212   1.797       .  S
O208        C215   1.261       .  A
O208       Al216   1.916       .  S
O209        C218   1.256       .  A
O209       Al216   1.927       .  S
O210       Al216   1.919       .  S
O211        C218   1.260       .  A
O212       Al216   1.793       .  S
O213        C214   1.263       .  A
C214       C1573   1.493       .  S
C215       C1554   1.515       .  S
C218       C1538   1.516       .  S
C219        O220   1.265       .  A
C219       C1637   1.492       .  S
O221        C236   1.270       .  A
O221       Al229   1.940       .  S
C222        O232   1.272       .  A
C222        O223   1.270       .  A
C222       C1490   1.489       .  S
O223      Al2465   1.920   1_554  S
O224        C226   1.259       .  A
O224      Al2465   1.890       .  S
Al225       O233   1.885       .  S
Al225       O235   1.916       .  S
Al225      O2463   1.918       .  S
Al225      O2464   1.886       .  S
Al225       O234   1.779       .  S
C226       O2479   1.261   1_556  A
C226       C3893   1.478   1_556  S
O227        C237   1.261       .  A
O227      Al2469   1.924   1_554  S
O228        C241   1.271       .  A
O228      Al2478   1.942       .  S
Al229       O242   1.879       .  S
Al229       O239   1.907       .  S
Al229      O2467   1.935       .  S
Al229       O234   1.783       .  S
O230        C237   1.262       .  A
O230       Al238   1.912       .  S
O231       C2480   1.270       .  A
O231       Al238   1.945       .  S
O232       Al238   1.932       .  S
O233        C240   1.251       .  A
O234      Al2478   1.775       .  S
O235        C236   1.266       .  A
C236       C1474   1.493       .  S
C237       C1506   1.493       .  S
Al238      O2468   1.944   1_554  S
Al238      O2474   1.778   1_554  S
O239       C2466   1.260       .  A
C240       O2471   1.269       .  A
C240       C2037   1.501       .  S
C241        O242   1.255       .  A
C241       C1522   1.502       .  S
O243        C258   1.256       .  A
O243       Al251   1.878       .  S
C244        O254   1.267       .  A
C244        O245   1.266       .  A
C244       C1493   1.489       .  S
O245       Al247   1.921       .  S
O246        C248   1.246       .  A
O246       Al247   1.851       .  S
Al247       O255   1.860       .  S
Al247       O257   1.918       .  S
Al247       O256   1.765       .  S
C248        O261   1.277       .  A
C248       C1458   1.503       .  S
O249        C259   1.271       .  A
O249       Al251   1.938       .  S
O250        C263   1.271       .  A
O250       Al260   1.920       .  S
Al251       O264   1.941       .  S
Al251       O261   1.994       .  S
Al251       O256   1.777       .  S
O252        C259   1.270       .  A
O252       Al260   1.931       .  S
O253        C262   1.272       .  A
O253       Al260   1.973       .  S
O254       Al260   1.920       .  S
O255        C262   1.249       .  A
O256       Al260   1.769       .  S
O257        C258   1.263       .  A
C258       C1442   1.473       .  S
C259       C1557   1.522       .  S
C262       C1989   1.485       .  S
C263        O264   1.271       .  A
C263       C1477   1.489       .  S
O265        C280   1.266       .  A
O265       Al273   1.906       .  S
C266        O276   1.258       .  A
C266        O267   1.267       .  A
C266       C1381   1.473       .  S
O267       Al269   1.931       .  S
O268        C270   1.261       .  A
O268       Al269   1.890       .  S
Al269       O277   1.886       .  S
Al269      O2519   1.904       .  S
Al269      O2518   1.779       .  S
C270        O283   1.262       .  A
C270       C1426   1.488       .  S
O271        C281   1.272       .  A
O271       Al273   1.939       .  S
O272        C285   1.261       .  A
O272       Al282   1.885       .  S
Al273       O286   1.920       .  S
Al273      O2523   1.934       .  S
Al273       O278   1.782       .  S
O274        C281   1.254       .  A
O274       Al282   1.882       .  S
O275        C284   1.252       .  A
O275       Al282   1.894       .  S
O276      Al2522   1.888       .  S
O277       C2524   1.255       .  A
O278       Al282   1.779       .  S
O278      Al2509   1.774       .  S
O279        C280   1.258       .  A
O279      Al2509   1.892       .  S
C280       C1410   1.483       .  S
C281       C1394   1.492       .  S
Al282      O2516   1.878       .  S
O283      Al2513   1.931   1_554  S
C284       O2517   1.255       .  A
C284       C1781   1.491       .  S
C285        O286   1.264       .  A
C285       C1362   1.469       .  S
O287        C302   1.262       .  A
O287       Al295   1.886       .  S
C288        O298   1.264       .  A
C288        O289   1.261       .  A
C288       C1365   1.468       .  S
O289       Al291   1.893       .  S
O290        C292   1.259       .  A
O290       Al291   1.909       .  S
Al291       O299   1.885       .  S
Al291       O301   1.902       .  S
Al291       O300   1.781       .  S
C292        O305   1.261       .  A
C292       C1346   1.494       .  S
O293        C303   1.271       .  A
O293       Al295   1.930       .  S
O294        C307   1.261       .  A
O294       Al304   1.909       .  S
Al295       O308   1.910       .  S
Al295       O305   1.932       .  S
Al295       O300   1.786       .  S
O296        C303   1.273       .  A
O296       Al304   1.951       .  S
O297        C306   1.266       .  A
O297       Al304   1.953       .  S
O298       Al304   1.898       .  S
O299        C306   1.252       .  A
O300       Al304   1.787       .  S
O301        C302   1.264       .  A
C302       C1330   1.477       .  S
C303       C1314   1.503       .  S
C306       C1733   1.509       .  S
C307        O308   1.263       .  A
C307       C1378   1.493       .  S
O309        C324   1.270       .  A
O309       Al317   1.931       .  S
C310        O320   1.260       .  A
C310        O311   1.266       .  A
C310       C1266   1.484       .  S
O311      Al2553   1.930       .  S
O312       C2554   1.269   1_556  A
O312      Al2553   1.923   1_556  S
Al313       O321   1.952       .  S
Al313       O323   1.904       .  S
Al313      O2551   1.924       .  S
Al313      O2552   1.929       .  S
Al313       O322   1.761       .  S
C314        O327   1.259       .  A
C314       O2552   1.271       .  A
C314       C1397   1.484       .  S
O315        C325   1.274       .  A
O315      Al2557   2.003   1_554  S
O316        C329   1.265       .  A
O316      Al2566   1.936       .  S
Al317       O330   1.877       .  S
Al317       O327   1.888       .  S
Al317      O2555   1.984       .  S
Al317       O322   1.776       .  S
O318        C325   1.246       .  A
O318       Al326   1.856       .  S
O319       C2568   1.263   1_554  A
O319       Al326   1.880       .  S
O320       Al326   1.913       .  S
O321        C328   1.272       .  A
O322      Al2566   1.750       .  S
O323        C324   1.267       .  A
C324       C1250   1.494       .  S
C325       C1282   1.498       .  S
Al326      O2556   1.940       .  S
Al326      O2562   1.751       .  S
C328       O2559   1.260       .  A
C328       C1605   1.469       .  S
C329        O330   1.257       .  A
C329       C1298   1.486       .  S
O331        C346   1.258       .  A
O331       Al339   1.886       .  S
C332        O342   1.266       .  A
C332        O333   1.264       .  A
C332       C1269   1.479       .  S
O333       Al335   1.911       .  S
O334        C336   1.256       .  A
O334       Al335   1.896       .  S
Al335       O343   1.881       .  S
Al335       O345   1.915       .  S
Al335       O344   1.779       .  S
C336        O349   1.266       .  A
C336       C1234   1.500       .  S
O337        C347   1.272       .  A
O337       Al339   1.931       .  S
O338        C351   1.266       .  A
O338       Al348   1.924       .  S
Al339       O352   1.905       .  S
Al339       O349   1.954       .  S
Al339       O344   1.789       .  S
O340        C347   1.269       .  A
O340       Al348   1.943       .  S
O341        C350   1.268       .  A
O341       Al348   1.961       .  S
O342       Al348   1.911       .  S
O343        C350   1.251       .  A
O344       Al348   1.788       .  S
O345        C346   1.266       .  A
C346       C1218   1.488       .  S
C347       C1317   1.503       .  S
C350       C1541   1.515       .  S
C351        O352   1.264       .  A
C351       C1253   1.495       .  S
O353        C368   1.273       .  A
O353       Al361   1.943       .  S
C354        O364   1.273       .  A
C354        O355   1.269       .  A
C354       C1186   1.490       .  S
O355       Al357   1.922       .  S
O356        C358   1.254       .  A
O356       Al357   1.893       .  S
Al357       O365   1.891       .  S
Al357       O367   1.912       .  S
Al357       O366   1.781       .  S
C358        O371   1.270       .  A
C358       C1202   1.505       .  S
O359        C369   1.264       .  A
O359       Al361   1.937       .  S
O360        C373   1.272       .  A
O360       Al370   1.943       .  S
Al361       O374   1.895       .  S
Al361       O371   1.947       .  S
Al361       O366   1.787       .  S
O362        C369   1.258       .  A
O362       Al370   1.892       .  S
O363        C372   1.264       .  A
O363       Al370   1.918       .  S
O364       Al370   1.936       .  S
O365        C372   1.250       .  A
O366       Al370   1.771       .  S
O367        C368   1.266       .  A
C368       C1170   1.498       .  S
C369       C1509   1.490       .  S
C372       C1154   1.500       .  S
C373        O374   1.260       .  A
C373       C1461   1.509       .  S
O375        C390   1.256       .  A
O375       Al383   1.873       .  S
C376        O386   1.268       .  A
C376        O377   1.263       .  A
C376       C1189   1.489       .  S
O377       Al379   1.923       .  S
O378        C380   1.248       .  A
O378       Al379   1.854       .  S
Al379       O387   1.860       .  S
Al379       O389   1.918       .  S
Al379       O388   1.764       .  S
C380        O393   1.273       .  A
C380       C1525   1.491       .  S
O381        C391   1.266       .  A
O381       Al383   1.917       .  S
O382        C395   1.275       .  A
O382       Al392   1.937       .  S
Al383       O396   1.927       .  S
Al383       O393   1.967       .  S
Al383       O388   1.769       .  S
O384        C391   1.273       .  A
O384       Al392   1.943       .  S
O385        C394   1.276       .  A
O385       Al392   1.995       .  S
O386       Al392   1.928       .  S
O387        C394   1.252       .  A
O388       Al392   1.768       .  S
O389        C390   1.263       .  A
C390       C1445   1.465       .  S
C391       C1138   1.513       .  S
C394       C1122   1.497       .  S
C395        O396   1.269       .  A
C395       C1173   1.495       .  S
O397        C412   1.258       .  A
O397       Al405   1.868       .  S
C398        O408   1.263       .  A
C398        O399   1.267       .  A
C398       C1106   1.498       .  S
O399       Al401   1.924       .  S
O400        C402   1.245       .  A
O400       Al401   1.854       .  S
Al401       O409   1.857       .  S
Al401       O411   1.969       .  S
Al401       O410   1.756       .  S
C402        O415   1.272       .  A
C402       C1893   1.494       .  S
O403        C413   1.266       .  A
O403       Al405   1.918       .  S
O404        C417   1.265       .  A
O404       Al414   1.893       .  S
Al405       O418   1.940       .  S
Al405       O415   1.982       .  S
Al405       O410   1.772       .  S
O406        C413   1.268       .  A
O406       Al414   1.915       .  S
O407        C416   1.268       .  A
O407       Al414   1.947       .  S
O408       Al414   1.916       .  S
O409        C416   1.257       .  A
O410       Al414   1.763       .  S
O411        C412   1.271       .  A
C412       C1829   1.489       .  S
C413       C1205   1.502       .  S
C416       C1077   1.477       .  S
C417        O418   1.273       .  A
C417       C1090   1.482       .  S
O419        C434   1.256       .  A
O419       Al427   1.895       .  S
C420        O430   1.264       .  A
C420        O421   1.272       .  A
C420       C1093   1.477       .  S
O421       Al423   1.940       .  S
O422        C424   1.258       .  A
O422       Al423   1.880       .  S
Al423       O431   1.931       .  S
Al423       O433   1.930       .  S
Al423       O432   1.772       .  S
C424        O437   1.273       .  A
C424       C1845   1.491       .  S
O425        C435   1.268       .  A
O425       Al427   1.945       .  S
O426        C439   1.262       .  A
O426       Al436   1.870       .  S
Al427       O440   1.952       .  S
Al427       O437   1.960       .  S
Al427       O432   1.785       .  S
O428        C435   1.253       .  A
O428       Al436   1.898       .  S
O429        C438   1.258       .  A
O429       Al436   1.919       .  S
O430       Al436   1.892       .  S
O431        C438   1.266       .  A
O432       Al436   1.777       .  S
O433        C434   1.268       .  A
C434       C1877   1.508       .  S
C435       C1141   1.513       .  S
C438       C1058   1.506       .  S
C439        O440   1.275       .  A
C439       C1109   1.474       .  S
O441        C456   1.261       .  A
O441       Al449   1.884       .  S
C442        O452   1.261       .  A
C442        O443   1.261       .  A
C442       C1029   1.470       .  S
O443       Al445   1.899       .  S
O444        C446   1.262       .  A
O444       Al445   1.916       .  S
Al445       O453   1.904       .  S
Al445       O455   1.898       .  S
Al445       O454   1.786       .  S
C446        O459   1.256       .  A
C446       C1429   1.493       .  S
O447        C457   1.266       .  A
O447       Al449   1.910       .  S
O448        C461   1.260       .  A
O448       Al458   1.900       .  S
Al449       O462   1.899       .  S
Al449       O459   1.917       .  S
Al449       O454   1.792       .  S
O450        C457   1.266       .  A
O450       Al458   1.925       .  S
O451        C460   1.261       .  A
O451       Al458   1.936       .  S
O452       Al458   1.894       .  S
O453        C460   1.259       .  A
O454       Al458   1.789       .  S
O455        C456   1.262       .  A
C456       C1333   1.468       .  S
C457       C1042   1.494       .  S
C460        C997   1.519       .  S
C461        O462   1.260       .  A
C461       C1010   1.480       .  S
O463        C478   1.263       .  A
O463       Al471   1.893       .  S
C464        O474   1.264       .  A
C464        O465   1.269       .  A
C464       C1013   1.461       .  S
O465       Al467   1.913       .  S
O466        C468   1.260       .  A
O466       Al467   1.896       .  S
Al467       O475   1.898       .  S
Al467       O477   1.903       .  S
Al467       O476   1.780       .  S
C468        O481   1.265       .  A
C468       C1349   1.501       .  S
O469        C479   1.272       .  A
O469       Al471   1.960       .  S
O470        C483   1.265       .  A
O470       Al480   1.891       .  S
Al471       O484   1.925       .  S
Al471       O481   1.939       .  S
Al471       O476   1.785       .  S
O472        C479   1.255       .  A
O472       Al480   1.900       .  S
O473        C482   1.254       .  A
O473       Al480   1.910       .  S
O474       Al480   1.888       .  S
O475        C482   1.253       .  A
O476       Al480   1.787       .  S
O477        C478   1.259       .  A
C478       C1413   1.478       .  S
C479        C978   1.517       .  S
C482        C962   1.485       .  S
C483        O484   1.268       .  A
C483       C1026   1.475       .  S
O485        C500   1.256       .  A
O485       Al493   1.871       .  S
C486        O496   1.265       .  A
C486        O487   1.273       .  A
C486        C930   1.471       .  S
O487       Al489   1.942       .  S
O488        C490   1.258       .  A
O488       Al489   1.888       .  S
Al489       O497   1.885       .  S
Al489       O499   1.936       .  S
Al489       O498   1.778       .  S
C490        O503   1.266       .  A
C490       C2101   1.503       .  S
O491        C501   1.264       .  A
O491       Al493   1.927       .  S
O492        C505   1.264       .  A
O492       Al502   1.887       .  S
Al493       O506   1.939       .  S
Al493       O503   1.948       .  S
Al493       O498   1.783       .  S
O494        C501   1.261       .  A
O494       Al502   1.900       .  S
O495        C504   1.254       .  A
O495       Al502   1.902       .  S
O496       Al502   1.880       .  S
O497        C504   1.252       .  A
O498       Al502   1.784       .  S
O499        C500   1.266       .  A
C500       C2149   1.480       .  S
C501       C1045   1.498       .  S
C504       C1074   1.472       .  S
C505        O506   1.270       .  A
C505        C949   1.478       .  S
O507        C522   1.261       .  A
O507       Al515   1.888       .  S
C508        O518   1.262       .  A
C508        O509   1.261       .  A
C508        C946   1.482       .  S
O509       Al511   1.909       .  S
O510        C512   1.256       .  A
O510       Al511   1.885       .  S
Al511       O519   1.878       .  S
Al511       O521   1.906       .  S
Al511       O520   1.779       .  S
C512        O525   1.260       .  A
C512       C2162   1.486       .  S
O513        C523   1.269       .  A
O513       Al515   1.924       .  S
O514        C527   1.263       .  A
O514       Al524   1.922       .  S
Al515       O528   1.891       .  S
Al515       O525   1.928       .  S
Al515       O520   1.785       .  S
O516        C523   1.275       .  A
O516       Al524   1.943       .  S
O517        C526   1.270       .  A
O517       Al524   1.955       .  S
O518       Al524   1.906       .  S
O519        C526   1.252       .  A
O520       Al524   1.778       .  S
O521        C522   1.264       .  A
C522       C2085   1.474       .  S
C523        C981   1.519       .  S
C526       C1061   1.502       .  S
C527        O528   1.261       .  A
C527        C933   1.484       .  S
O529        C544   1.260       .  A
O529       Al537   1.889       .  S
C530        O540   1.263       .  A
C530        O531   1.263       .  A
C530        C898   1.501       .  S
O531       Al533   1.914       .  S
O532        C534   1.245       .  A
O532       Al533   1.860       .  S
Al533       O541   1.866       .  S
Al533       O543   1.947       .  S
Al533       O542   1.761       .  S
C534        O547   1.272       .  A
C534       C1685   1.503       .  S
O535        C545   1.277       .  A
O535       Al537   1.946       .  S
O536        C549   1.271       .  A
O536       Al546   1.909       .  S
Al537       O550   1.914       .  S
Al537       O547   1.994       .  S
Al537       O542   1.782       .  S
O538        C545   1.262       .  A
O538       Al546   1.913       .  S
O539        C548   1.272       .  A
O539       Al546   1.966       .  S
O540       Al546   1.926       .  S
O541        C548   1.256       .  A
O542       Al546   1.760       .  S
O543        C544   1.267       .  A
C544       C1570   1.476       .  S
C545        C914   1.517       .  S
C548        C866   1.491       .  S
C549        O550   1.266       .  A
C549        C882   1.482       .  S
O551        C566   1.250       .  A
O551       Al559   1.865       .  S
C552        O562   1.265       .  A
C552        O553   1.271       .  A
C552        C885   1.470       .  S
O553       Al555   1.938       .  S
O554        C556   1.260       .  A
O554       Al555   1.884       .  S
Al555       O563   1.913       .  S
Al555       O565   1.925       .  S
Al555       O564   1.764       .  S
C556        O569   1.275       .  A
C556       C1589   1.499       .  S
O557        C567   1.264       .  A
O557       Al559   1.929       .  S
O558        C571   1.261       .  A
O558       Al568   1.882       .  S
Al559       O572   1.967       .  S
Al559       O569   1.979       .  S
Al559       O564   1.778       .  S
O560        C567   1.260       .  A
O560       Al568   1.891       .  S
O561        C570   1.255       .  A
O561       Al568   1.909       .  S
O562       Al568   1.891       .  S
O563        C570   1.265       .  A
O564       Al568   1.772       .  S
O565        C566   1.268       .  A
C566       C1669   1.488       .  S
C567        C850   1.500       .  S
C570        C834   1.496       .  S
C571        O572   1.278       .  A
C571        C901   1.484       .  S
O573        C588   1.259       .  A
O573       Al581   1.892       .  S
C574        O584   1.261       .  A
C574        O575   1.265       .  A
C574        C802   1.474       .  S
O575       Al577   1.930       .  S
O576        C578   1.262       .  A
O576       Al577   1.886       .  S
Al577       O585   1.907       .  S
Al577       O587   1.922       .  S
Al577       O586   1.771       .  S
C578        O591   1.274       .  A
C578       C1717   1.494       .  S
O579        C589   1.264       .  A
O579       Al581   1.927       .  S
O580        C593   1.257       .  A
O580       Al590   1.869       .  S
Al581       O594   1.951       .  S
Al581       O591   1.973       .  S
Al581       O586   1.786       .  S
O582        C589   1.268       .  A
O582       Al590   1.933       .  S
O583        C592   1.273       .  A
O583       Al590   1.967       .  S
O584       Al590   1.895       .  S
O585        C592   1.262       .  A
O586       Al590   1.776       .  S
O587        C588   1.261       .  A
C588       C1749   1.496       .  S
C589        C917   1.515       .  S
C592        C994   1.520       .  S
C593        O594   1.275       .  A
C593        C821   1.490       .  S
O595        C610   1.255       .  A
O595       Al603   1.870       .  S
C596        O606   1.265       .  A
C596        O597   1.264       .  A
C596        C818   1.491       .  S
O597       Al599   1.913       .  S
O598        C600   1.250       .  A
O598       Al599   1.860       .  S
Al599       O607   1.872       .  S
Al599       O609   1.931       .  S
Al599       O608   1.760       .  S
C600        O613   1.270       .  A
C600       C1765   1.500       .  S
O601        C611   1.272       .  A
O601       Al603   1.931       .  S
O602        C615   1.271       .  A
O602       Al612   1.913       .  S
Al603       O616   1.920       .  S
Al603       O613   1.977       .  S
Al603       O608   1.779       .  S
O604        C611   1.258       .  A
O604       Al612   1.896       .  S
O605        C614   1.268       .  A
O605       Al612   1.951       .  S
O606       Al612   1.924       .  S
O607        C614   1.257       .  A
O608       Al612   1.763       .  S
O609        C610   1.265       .  A
C610       C1701   1.469       .  S
C611        C853   1.503       .  S
C614        C965   1.483       .  S
C615        O616   1.268       .  A
C615        C805   1.485       .  S
O617        C632   1.256       .  A
O617       Al625   1.876       .  S
C618        O628   1.266       .  A
C618        O619   1.269       .  A
C618        C754   1.479       .  S
O619       Al621   1.938       .  S
O620        C622   1.259       .  A
O620       Al621   1.890       .  S
Al621       O629   1.914       .  S
Al621       O631   1.929       .  S
Al621       O630   1.771       .  S
C622        O635   1.275       .  A
C622       C1237   1.502       .  S
O623        C633   1.265       .  A
O623       Al625   1.923       .  S
O624        C637   1.266       .  A
O624       Al634   1.897       .  S
Al625       O638   1.959       .  S
Al625       O635   1.982       .  S
Al625       O630   1.779       .  S
O626        C633   1.262       .  A
O626       Al634   1.906       .  S
O627        C636   1.262       .  A
O627       Al634   1.915       .  S
O628       Al634   1.905       .  S
O629        C636   1.263       .  A
O630       Al634   1.774       .  S
O631        C632   1.266       .  A
C632       C1285   1.488       .  S
C633        C786   1.500       .  S
C636        C869   1.489       .  S
C637        O638   1.274       .  A
C637        C770   1.507       .  S
O639        C654   1.259       .  A
O639       Al647   1.871       .  S
C640        O650   1.262       .  A
C640        O641   1.259       .  A
C640        C773   1.479       .  S
O641       Al643   1.915       .  S
O642        C644   1.248       .  A
O642       Al643   1.867       .  S
Al643       O651   1.840       .  S
Al643       O653   1.948       .  S
Al643       O652   1.759       .  S
C644        O657   1.268       .  A
C644       C1301   1.493       .  S
O645        C655   1.266       .  A
O645       Al647   1.896       .  S
O646        C659   1.268       .  A
O646       Al656   1.912       .  S
Al647       O660   1.923       .  S
Al647       O657   1.971       .  S
Al647       O652   1.775       .  S
O648        C655   1.272       .  A
O648       Al656   1.943       .  S
O649        C658   1.278       .  A
O649       Al656   1.978       .  S
O650       Al656   1.916       .  S
O651        C658   1.247       .  A
O652       Al656   1.760       .  S
O653        C654   1.269       .  A
C654       C1221   1.465       .  S
C655        C738   1.481       .  S
C658        C837   1.498       .  S
C659        O660   1.266       .  A
C659        C757   1.485       .  S
O661        C676   1.271       .  A
O661       Al669   1.927       .  S
C662        O672   1.265       .  A
C662        O663   1.262       .  A
C662        C706   1.492       .  S
O663       Al665   1.915       .  S
O664        C666   1.270       .  A
O664       Al665   1.945       .  S
Al665       O673   1.977       .  S
Al665       O675   1.919       .  S
Al665       O674   1.767       .  S
C666        O679   1.266       .  A
C666        C789   1.498       .  S
O667        C677   1.269       .  A
O667       Al669   1.959       .  S
O668        C681   1.268       .  A
O668       Al678   1.939       .  S
Al669       O682   1.882       .  S
Al669       O679   1.902       .  S
Al669       O674   1.771       .  S
O670        C677   1.245       .  A
O670       Al678   1.848       .  S
O671        C680   1.248       .  A
O671       Al678   1.850       .  S
O672       Al678   1.929       .  S
O673        C680   1.276       .  A
O674       Al678   1.758       .  S
O675        C676   1.268       .  A
C676        C722   1.502       .  S
C677       C1957   1.484       .  S
C680       C1157   1.500       .  S
C681        O682   1.259       .  A
C681       C2021   1.480       .  S
O683        C698   1.259       .  A
O683       Al691   1.880       .  S
C684        O694   1.270       .  A
C684        O685   1.266       .  A
C684        C709   1.486       .  S
O685       Al687   1.913       .  S
O686        C688   1.261       .  A
O686       Al687   1.904       .  S
Al687       O695   1.924       .  S
Al687       O697   1.919       .  S
Al687       O696   1.779       .  S
C688        O701   1.267       .  A
C688       C1973   1.502       .  S
O689        C699   1.268       .  A
O689       Al691   1.929       .  S
O690        C703   1.272       .  A
O690       Al700   1.939       .  S
Al691       O704   1.924       .  S
Al691       O701   1.951       .  S
Al691       O696   1.789       .  S
O692        C699   1.259       .  A
O692       Al700   1.890       .  S
O693        C702   1.257       .  A
O693       Al700   1.900       .  S
O694       Al700   1.931       .  S
O695        C702   1.264       .  A
O696       Al700   1.785       .  S
O697        C698   1.263       .  A
C698       C2002   1.492       .  S
C699        C741   1.491       .  S
C702       C1125   1.496       .  S
C703        O704   1.265       .  A
C703        C725   1.509       .  S
C705        C706   1.411       .  A
C705        C710   1.416       .  A
C705        H712   1.083       .  S
C706        C707   1.416       .  A
C707        C708   1.406       .  A
C707        C714   1.515       .  S
C708        C709   1.404       .  A
C708        H713   1.084       .  S
C709        C710   1.415       .  A
C710        C711   1.517       .  S
C711        F715   1.385       .  S
C711        F716   1.383       .  S
C711        F717   1.383       .  S
C714        F718   1.382       .  S
C714        F719   1.384       .  S
C714        F720   1.385       .  S
C721        C722   1.405       .  A
C721       C2966   1.405   1_554  A
C721        H728   1.083       .  S
C722        C723   1.424       .  A
C723       C2964   1.418   1_554  A
C723        C730   1.519       .  S
C724        C725   1.411       .  A
C724       C2963   1.421       .  A
C724        H729   1.082       .  S
C725        C726   1.427       .  A
C726       C2961   1.406       .  A
C726        C727   1.522       .  S
C727        F731   1.385       .  S
C727        F732   1.379       .  S
C727        F733   1.383       .  S
C730        F734   1.383       .  S
C730        F735   1.382       .  S
C730        F736   1.384   1_554  S
C737        C738   1.409       .  A
C737        C742   1.413   1_565  A
C737        H744   1.083       .  S
C738        C739   1.411       .  A
C739        C740   1.402   1_565  A
C739        C746   1.520       .  S
C740        C741   1.410       .  A
C740        H745   1.083       .  S
C741        C742   1.415       .  A
C742        C743   1.515       .  S
C743        F747   1.385   1_545  S
C743        F748   1.383       .  S
C743        F749   1.382       .  S
C746        F750   1.381       .  S
C746        F751   1.381       .  S
C746        F752   1.385   1_565  S
C753        C754   1.401       .  A
C753        C758   1.407       .  A
C753        H760   1.084       .  S
C754        C755   1.415       .  A
C755        C756   1.407       .  A
C755        C762   1.514       .  S
C756        C757   1.404       .  A
C756        H761   1.084       .  S
C757        C758   1.423       .  A
C758        C759   1.520       .  S
C759        F763   1.385       .  S
C759        F764   1.384       .  S
C759        F765   1.382       .  S
C762        F766   1.384       .  S
C762        F767   1.379       .  S
C762        F768   1.385       .  S
C769        C770   1.413       .  A
C769       C3014   1.410       .  A
C769        H776   1.083       .  S
C770        C771   1.426       .  A
C771       C3012   1.415   1_554  A
C771        C778   1.520       .  S
C772        C773   1.402       .  A
C772       C3011   1.409       .  A
C772        H777   1.082       .  S
C773        C774   1.411       .  A
C774       C3009   1.409       .  A
C774        C775   1.517       .  S
C775        F779   1.385       .  S
C775        F780   1.384       .  S
C775        F781   1.382       .  S
C778        F782   1.383       .  S
C778        F783   1.383       .  S
C778       F3024   1.385       .  S
F784       C3018   1.385       .  S
C785        C786   1.410       .  A
C785        C790   1.408   1_565  A
C785        H792   1.082       .  S
C786        C787   1.421       .  A
C787        C788   1.412   1_565  A
C787        C794   1.519       .  S
C788        C789   1.409       .  A
C788        H793   1.082       .  S
C789        C790   1.421       .  A
C790        C791   1.522       .  S
C791        F795   1.385       .  S
C791        F796   1.381       .  S
C791        F797   1.383       .  S
C794        F798   1.384   1_565  S
C794        F799   1.383       .  S
C794        F800   1.383       .  S
C801        C802   1.399       .  A
C801        C806   1.404       .  A
C801        H808   1.084       .  S
C802        C803   1.414       .  A
C803        C804   1.408       .  A
C803        C810   1.518       .  S
C804        C805   1.407       .  A
C804        H809   1.083       .  S
C805        C806   1.424       .  A
C806        C807   1.521       .  S
C807        F811   1.385       .  S
C807        F812   1.383       .  S
C807        F813   1.383       .  S
C810        F814   1.384       .  S
C810        F815   1.382       .  S
C810        F816   1.385       .  S
C817        C818   1.403       .  A
C817       C3062   1.405       .  A
C817        H824   1.083       .  S
C818        C819   1.424       .  A
C819       C3060   1.411       .  A
C819        C826   1.517       .  S
C820        C821   1.402       .  A
C820       C3059   1.408   1_554  A
C820        H825   1.083       .  S
C821        C822   1.427       .  A
C822       C3057   1.408   1_554  A
C822        C823   1.522       .  S
C823        F827   1.385       .  S
C823        F828   1.383       .  S
C823        F829   1.383       .  S
C826        F830   1.380       .  S
C826        F831   1.382       .  S
C826        F832   1.385       .  S
C833        C834   1.400       .  A
C833        C838   1.404       .  A
C833        H840   1.081       .  S
C834        C835   1.430       .  A
C835        C836   1.409       .  A
C835        C842   1.524       .  S
C836        C837   1.402       .  A
C836        H841   1.082       .  S
C837        C838   1.435       .  A
C838        C839   1.529       .  S
C839        F843   1.385       .  S
C839        F844   1.382       .  S
C839        F845   1.384       .  S
C842        F846   1.380       .  S
C842        F847   1.382       .  S
C842        F848   1.385       .  S
C849        C850   1.404       .  A
C849        C854   1.399   1_655  A
C849        H856   1.081       .  S
C850        C851   1.420       .  A
C851        C852   1.419   1_655  A
C851        C858   1.516       .  S
C852        C853   1.412       .  A
C852        H857   1.082       .  S
C853        C854   1.432       .  A
C854        C855   1.531       .  S
C855        F859   1.385   1_455  S
C855        F860   1.384       .  S
C855        F861   1.383       .  S
C858        F862   1.383       .  S
C858        F863   1.383       .  S
C858        F864   1.384       .  S
C865        C866   1.409       .  A
C865        C870   1.408       .  A
C865        H872   1.083       .  S
C866        C867   1.418       .  A
C867        C868   1.409       .  A
C867        C874   1.519       .  S
C868        C869   1.408       .  A
C868        H873   1.083       .  S
C869        C870   1.418       .  A
C870        C871   1.520       .  S
C871        F875   1.385       .  S
C871        F876   1.381       .  S
C871        F877   1.380       .  S
C874        F878   1.384       .  S
C874        F879   1.382       .  S
C874        F880   1.385       .  S
C881        C882   1.405       .  A
C881        C886   1.405       .  A
C881        H888   1.083       .  S
C882        C883   1.425       .  A
C883        C884   1.404       .  A
C883        C890   1.521       .  S
C884        C885   1.398       .  A
C884        H889   1.084       .  S
C885        C886   1.413       .  A
C886        C887   1.515       .  S
C887        F891   1.385       .  S
C887        F892   1.380       .  S
C887        F893   1.382       .  S
C890        F894   1.382       .  S
C890        F895   1.383       .  S
C890        F896   1.385       .  S
C897        C898   1.405       .  A
C897       C3142   1.406   1_554  A
C897        H904   1.083       .  S
C898        C899   1.427       .  A
C899       C3140   1.414   1_554  A
C899        C906   1.514       .  S
C900        C901   1.399       .  A
C900       C3139   1.414       .  A
C900        H905   1.083       .  S
C901        C902   1.418       .  A
C902       C3137   1.404       .  A
C902        C903   1.519       .  S
C903        F907   1.385       .  S
C903        F908   1.381       .  S
C903        F909   1.378       .  S
C906        F910   1.379       .  S
C906        F911   1.383       .  S
C906        F912   1.385       .  S
C913        C914   1.410       .  A
C913        C918   1.423   1_655  A
C913        H920   1.082       .  S
C914        C915   1.435       .  A
C915        C916   1.410   1_655  A
C915        C922   1.528       .  S
C916        C917   1.403       .  A
C916        H921   1.081       .  S
C917        C918   1.427       .  A
C918        C919   1.518       .  S
C919        F923   1.385   1_455  S
C919        F924   1.383       .  S
C919        F925   1.383       .  S
C922        F926   1.383       .  S
C922        F927   1.383       .  S
C922        F928   1.385       .  S
C929        C930   1.406       .  A
C929        C934   1.412       .  A
C929        H936   1.083       .  S
C930        C931   1.411       .  A
C931        C932   1.398       .  A
C931        C938   1.520       .  S
C932        C933   1.407       .  A
C932        H937   1.083       .  S
C933        C934   1.418       .  A
C934        C935   1.518       .  S
C935        F939   1.385       .  S
C935        F940   1.380       .  S
C935        F941   1.383       .  S
C938        F942   1.385       .  S
C938        F943   1.384       .  S
C938        F944   1.383       .  S
C945        C946   1.405       .  A
C945       C3190   1.410       .  A
C945        H952   1.084       .  S
C946        C947   1.417       .  A
C947       C3188   1.406       .  A
C947        C954   1.518       .  S
C948        C949   1.405       .  A
C948       C3187   1.404   1_554  A
C948        H953   1.084       .  S
C949        C950   1.417       .  A
C950       C3185   1.406   1_554  A
C950        C951   1.517       .  S
C951        F955   1.385   1_554  S
C951        F956   1.382       .  S
C951        F957   1.382       .  S
C954        F958   1.384       .  S
C954        F959   1.381       .  S
C954        F960   1.385       .  S
C961        C962   1.407       .  A
C961        C966   1.412       .  A
C961        H968   1.083       .  S
C962        C963   1.418       .  A
C963        C964   1.404       .  A
C963        C970   1.520       .  S
C964        C965   1.404       .  A
C964        H969   1.083       .  S
C965        C966   1.418       .  A
C966        C967   1.519       .  S
C967        F971   1.385       .  S
C967        F972   1.383       .  S
C967        F973   1.383       .  S
C970        F974   1.382       .  S
C970        F975   1.384       .  S
C970        F976   1.385       .  S
C977        C978   1.410       .  A
C977        C982   1.425   1_565  A
C977        H984   1.082       .  S
C978        C979   1.434   1_565  A
C979        C980   1.408       .  A
C979        C986   1.529   1_545  S
C980        C981   1.405       .  A
C980        H985   1.081       .  S
C981        C982   1.428       .  A
C982        C983   1.518       .  S
C983        F987   1.385       .  S
C983        F988   1.383       .  S
C983        F989   1.383       .  S
C986        F990   1.383       .  S
C986        F991   1.382       .  S
C986        F992   1.385   1_565  S
C993        C994   1.411       .  A
C993        C998   1.421       .  A
C993       H1000   1.082       .  S
C994        C995   1.428       .  A
C995        C996   1.413       .  A
C995       C1002   1.519       .  S
C996        C997   1.408       .  A
C996       H1001   1.081       .  S
C997        C998   1.428       .  A
C998        C999   1.519       .  S
C999       F1003   1.384       .  S
C999       F1004   1.381       .  S
C999       F1005   1.381       .  S
C1002      F1006   1.382       .  S
C1002      F1007   1.384       .  S
C1002      F1008   1.385       .  S
C1009      C1010   1.409       .  A
C1009      C1014   1.402       .  A
C1009      H1016   1.083       .  S
C1010      C1011   1.418       .  A
C1011      C1012   1.403       .  A
C1011      C1018   1.515       .  S
C1012      C1013   1.399       .  A
C1012      H1017   1.084       .  S
C1013      C1014   1.410       .  A
C1014      C1015   1.520       .  S
C1015      F1019   1.385       .  S
C1015      F1020   1.382       .  S
C1015      F1021   1.381       .  S
C1018      F1022   1.382       .  S
C1018      F1023   1.382       .  S
C1018      F1024   1.385       .  S
C1025      C1026   1.404       .  A
C1025      C3270   1.406       .  A
C1025      H1032   1.083       .  S
C1026      C1027   1.416       .  A
C1027      C3268   1.403       .  A
C1027      C1034   1.519       .  S
C1028      C1029   1.399       .  A
C1028      C3267   1.403   1_554  A
C1028      H1033   1.083       .  S
C1029      C1030   1.414       .  A
C1030      C3265   1.405   1_554  A
C1030      C1031   1.518       .  S
C1031      F1035   1.381       .  S
C1031      F1036   1.381       .  S
C1031      F1037   1.384   1_554  S
C1034      F1038   1.384       .  S
C1034      F1039   1.382       .  S
C1034      F1040   1.385       .  S
C1041      C1042   1.411       .  A
C1041      C1046   1.417   1_565  A
C1041      H1048   1.083       .  S
C1042      C1043   1.419       .  A
C1043      C1044   1.402   1_565  A
C1043      C1050   1.522       .  S
C1044      C1045   1.408       .  A
C1044      H1049   1.082       .  S
C1045      C1046   1.419       .  A
C1046      C1047   1.516       .  S
C1047      F1051   1.384       .  S
C1047      F1052   1.382       .  S
C1047      F1053   1.382       .  S
C1050      F1054   1.383       .  S
C1050      F1055   1.381       .  S
C1050      F1056   1.385       .  S
C1057      C1058   1.405       .  A
C1057      C1062   1.413       .  A
C1057      H1064   1.082       .  S
C1058      C1059   1.430       .  A
C1059      C1060   1.413       .  A
C1059      C1066   1.521       .  S
C1060      C1061   1.402       .  A
C1060      H1065   1.082       .  S
C1061      C1062   1.428       .  A
C1062      C1063   1.521       .  S
C1063      F1067   1.385       .  S
C1063      F1068   1.382       .  S
C1063      F1069   1.382       .  S
C1066      F1070   1.383       .  S
C1066      F1071   1.383       .  S
C1066      F1072   1.385       .  S
C1073      C1074   1.405       .  A
C1073      C1078   1.407       .  A
C1073      H1080   1.083       .  S
C1074      C1075   1.415       .  A
C1075      C1076   1.398       .  A
C1075      C1082   1.521       .  S
C1076      C1077   1.405       .  A
C1076      H1081   1.083       .  S
C1077      C1078   1.417       .  A
C1078      C1079   1.518       .  S
C1079      F1083   1.385       .  S
C1079      F1084   1.383       .  S
C1079      F1085   1.383       .  S
C1082      F1086   1.382       .  S
C1082      F1087   1.383       .  S
C1082      F1088   1.385       .  S
C1089      C1090   1.403       .  A
C1089      C1094   1.406       .  A
C1089      H1096   1.083       .  S
C1090      C1091   1.422       .  A
C1091      C1092   1.407       .  A
C1091      C1098   1.520       .  S
C1092      C1093   1.401       .  A
C1092      H1097   1.083       .  S
C1093      C1094   1.417       .  A
C1094      C1095   1.519       .  S
C1095      F1099   1.381       .  S
C1095      F1100   1.384       .  S
C1095      F1101   1.383       .  S
C1098      F1102   1.382       .  S
C1098      F1103   1.383       .  S
C1098      F1104   1.385       .  S
C1105      C1106   1.405   1_556  A
C1105      C3350   1.406       .  A
C1105      H1112   1.083   1_556  S
C1106      C1107   1.427       .  A
C1107      C3348   1.412   1_554  A
C1107      C1114   1.516       .  S
C1108      C1109   1.399       .  A
C1108      C3347   1.411       .  A
C1108      H1113   1.083       .  S
C1109      C1110   1.415       .  A
C1110      C3345   1.398       .  A
C1110      C1111   1.519       .  S
C1111      F1115   1.385       .  S
C1111      F1116   1.384       .  S
C1111      F1117   1.380       .  S
C1114      F1118   1.380       .  S
C1114      F1119   1.383       .  S
C1114      F1120   1.385       .  S
C1121      C1122   1.413       .  A
C1121      C1126   1.407       .  A
C1121      H1128   1.083       .  S
C1122      C1123   1.413       .  A
C1123      C1124   1.415       .  A
C1123      C1130   1.516       .  S
C1124      C1125   1.415       .  A
C1124      H1129   1.083       .  S
C1125      C1126   1.414       .  A
C1126      C1127   1.517       .  S
C1127      F1131   1.385       .  S
C1127      F1132   1.384       .  S
C1127      F1133   1.381       .  S
C1130      F1134   1.382       .  S
C1130      F1135   1.384       .  S
C1130      F1136   1.385       .  S
C1137      C1138   1.405       .  A
C1137      C1142   1.408   1_655  A
C1137      H1144   1.081       .  S
C1138      C1139   1.428       .  A
C1139      C1140   1.421   1_655  A
C1139      C1146   1.519       .  S
C1140      C1141   1.409       .  A
C1140      H1145   1.082       .  S
C1141      C1142   1.432       .  A
C1142      C1143   1.527       .  S
C1143      F1147   1.383       .  S
C1143      F1148   1.382       .  S
C1143      F1149   1.385       .  S
C1146      F1150   1.383       .  S
C1146      F1151   1.383       .  S
C1146      F1152   1.385       .  S
C1153      C1154   1.399       .  A
C1153      C1158   1.405       .  A
C1153      H1160   1.082       .  S
C1154      C1155   1.432       .  A
C1155      C1156   1.411       .  A
C1155      C1162   1.523       .  S
C1156      C1157   1.402       .  A
C1156      H1161   1.082       .  S
C1157      C1158   1.434       .  A
C1158      C1159   1.526       .  S
C1159      F1163   1.385       .  S
C1159      F1164   1.383       .  S
C1159      F1165   1.384       .  S
C1162      F1166   1.383       .  S
C1162      F1167   1.384       .  S
C1162      F1168   1.385       .  S
C1169      C1170   1.403       .  A
C1169      C1174   1.408       .  A
C1169      H1176   1.083       .  S
C1170      C1171   1.425       .  A
C1171      C1172   1.417       .  A
C1171      C1178   1.520       .  S
C1172      C1173   1.405       .  A
C1172      H1177   1.083       .  S
C1173      C1174   1.423       .  A
C1174      C1175   1.522       .  S
C1175      F1179   1.385       .  S
C1175      F1180   1.383       .  S
C1175      F1181   1.382       .  S
C1178      F1182   1.383       .  S
C1178      F1183   1.384       .  S
C1178      F1184   1.385       .  S
C1185      C1186   1.402       .  A
C1185      C3430   1.405   1_554  A
C1185      H1192   1.084       .  S
C1186      C1187   1.419   1_554  A
C1187      C3428   1.416       .  A
C1187      C1194   1.516   1_556  S
C1188      C1189   1.406       .  A
C1188      C3427   1.415       .  A
C1188      H1193   1.083       .  S
C1189      C1190   1.417       .  A
C1190      C3425   1.408       .  A
C1190      C1191   1.517       .  S
C1191      F1195   1.385       .  S
C1191      F1196   1.384       .  S
C1191      F1197   1.382       .  S
C1194      F1198   1.379       .  S
C1194      F1199   1.383       .  S
C1194      F1200   1.385   1_554  S
C1201      C1202   1.410       .  A
C1201      C1206   1.418   1_655  A
C1201      H1208   1.082       .  S
C1202      C1203   1.433       .  A
C1203      C1204   1.402   1_655  A
C1203      C1210   1.530       .  S
C1204      C1205   1.403       .  A
C1204      H1209   1.081       .  S
C1205      C1206   1.422       .  A
C1206      C1207   1.517       .  S
C1207      F1211   1.384       .  S
C1207      F1212   1.383       .  S
C1207      F1213   1.383       .  S
C1210      F1214   1.379       .  S
C1210      F1215   1.383       .  S
C1210      F1216   1.385       .  S
C1217      C1218   1.408       .  A
C1217      C1222   1.399       .  A
C1217      H1224   1.084       .  S
C1218      C1219   1.428       .  A
C1219      C1220   1.406       .  A
C1219      C1226   1.520       .  S
C1220      C1221   1.398       .  A
C1220      H1225   1.083       .  S
C1221      C1222   1.412       .  A
C1222      C1223   1.519       .  S
C1223      F1227   1.384       .  S
C1223      F1228   1.383       .  S
C1223      F1229   1.382       .  S
C1226      F1230   1.380       .  S
C1226      F1231   1.383       .  S
C1226      F1232   1.385       .  S
C1233      C1234   1.407       .  A
C1233      C1238   1.414       .  A
C1233      H1240   1.085       .  S
C1234      C1235   1.419       .  A
C1235      C1236   1.418       .  A
C1235      C1242   1.516       .  S
C1236      C1237   1.410       .  A
C1236      H1241   1.083       .  S
C1237      C1238   1.419       .  A
C1238      C1239   1.515       .  S
C1239      F1243   1.384       .  S
C1239      F1244   1.384       .  S
C1239      F1245   1.382       .  S
C1242      F1246   1.384       .  S
C1242      F1247   1.382       .  S
C1242      F1248   1.384       .  S
C1249      C1250   1.410       .  A
C1249      C1254   1.414       .  A
C1249      H1256   1.082       .  S
C1250      C1251   1.420       .  A
C1251      C1252   1.403       .  A
C1251      C1258   1.521       .  S
C1252      C1253   1.407       .  A
C1252      H1257   1.083       .  S
C1253      C1254   1.420       .  A
C1254      C1255   1.519       .  S
C1255      F1259   1.385       .  S
C1255      F1260   1.383       .  S
C1255      F1261   1.383       .  S
C1258      F1262   1.383       .  S
C1258      F1263   1.384       .  S
C1258      F1264   1.385       .  S
C1265      C1266   1.407       .  A
C1265      C1270   1.408       .  A
C1265      H1272   1.084       .  S
C1266      C1267   1.419       .  A
C1267      C1268   1.409       .  A
C1267      C1274   1.519       .  S
C1268      C1269   1.401       .  A
C1268      H1273   1.081       .  S
C1269      C1270   1.416       .  A
C1270      C1271   1.520       .  S
C1271      F1275   1.385       .  S
C1271      F1276   1.383       .  S
C1271      F1277   1.382       .  S
C1274      F1278   1.382       .  S
C1274      F1279   1.382       .  S
C1274      F1280   1.384       .  S
C1281      C1282   1.415       .  A
C1281      C1286   1.396       .  A
C1281      H1288   1.081       .  S
C1282      C1283   1.415       .  A
C1283      C1284   1.413       .  A
C1283      C3530   1.517       .  S
C1284      C1285   1.416       .  A
C1284      H1289   1.082       .  S
C1285      C1286   1.412       .  A
C1286      C1287   1.522       .  S
C1287      F1291   1.385       .  S
C1287      F1292   1.383       .  S
C1287      F1293   1.383       .  S
C1290      C3523   1.517       .  S
C1290      F1294   1.385       .  S
C1290      F1295   1.384       .  S
C1290      F1296   1.380       .  S
C1297      C1298   1.413       .  A
C1297      C1302   1.407       .  A
C1297      H1304   1.082       .  S
C1298      C1299   1.417       .  A
C1299      C1300   1.400       .  A
C1299      C1306   1.525       .  S
C1300      C1301   1.413       .  A
C1300      H1305   1.081       .  S
C1301      C1302   1.416       .  A
C1302      C1303   1.519       .  S
C1303      F1307   1.385       .  S
C1303      F1308   1.382       .  S
C1303      F1309   1.383       .  S
C1306      F1310   1.384       .  S
C1306      F1312   1.385       .  S
C1306      F3551   1.382       .  S
F1311      C3546   1.383   1_554  S
C1313      C1314   1.407       .  A
C1313      C1318   1.414       .  A
C1313      H1320   1.083       .  S
C1314      C1315   1.419       .  A
C1315      C1316   1.422       .  A
C1315      C1322   1.516       .  S
C1316      C1317   1.410       .  A
C1316      H1321   1.083       .  S
C1317      C1318   1.418       .  A
C1318      C1319   1.517       .  S
C1319      F1323   1.385       .  S
C1319      F1324   1.382       .  S
C1319      F1325   1.382       .  S
C1322      F1326   1.383       .  S
C1322      F1327   1.382       .  S
C1322      F1328   1.385       .  S
C1329      C1330   1.408       .  A
C1329      C1334   1.402       .  A
C1329      H1336   1.083       .  S
C1330      C1331   1.420       .  A
C1331      C1332   1.399       .  A
C1331      C1338   1.519       .  S
C1332      C1333   1.402       .  A
C1332      H1337   1.084       .  S
C1333      C1334   1.411       .  A
C1334      C1335   1.521       .  S
C1335      F1339   1.385       .  S
C1335      F1340   1.382       .  S
C1335      F1341   1.380       .  S
C1338      F1342   1.381       .  S
C1338      F1343   1.382       .  S
C1338      F1344   1.385       .  S
C1345      C1346   1.406       .  A
C1345      C1350   1.409       .  A
C1345      H1352   1.085       .  S
C1346      C1347   1.418       .  A
C1347      C1348   1.417       .  A
C1347      C1354   1.516       .  S
C1348      C1349   1.411       .  A
C1348      H1353   1.084       .  S
C1349      C1350   1.418       .  A
C1350      C1351   1.512       .  S
C1351      F1355   1.384       .  S
C1351      F1356   1.380       .  S
C1351      F1357   1.377       .  S
C1354      F1358   1.383       .  S
C1354      F1359   1.383       .  S
C1354      F1360   1.383       .  S
C1361      C1362   1.402       .  A
C1361      C1366   1.401       .  A
C1361      H1368   1.084       .  S
C1362      C1363   1.417       .  A
C1363      C1364   1.404       .  A
C1363      C1370   1.520       .  S
C1364      C1365   1.402       .  A
C1364      H1369   1.082       .  S
C1365      C1366   1.416       .  A
C1366      C1367   1.520       .  S
C1367      F1371   1.385       .  S
C1367      F1372   1.384       .  S
C1367      F1373   1.382       .  S
C1370      F1374   1.384       .  S
C1370      F1375   1.382       .  S
C1370      F1376   1.385       .  S
C1377      C1378   1.408       .  A
C1377      C1382   1.401       .  A
C1377      H1384   1.082       .  S
C1378      C1379   1.424       .  A
C1379      C1380   1.412       .  A
C1379      C1386   1.519       .  S
C1380      C1381   1.401       .  A
C1380      H1385   1.083       .  S
C1381      C1382   1.413       .  A
C1382      C1383   1.521       .  S
C1383      F1387   1.385       .  S
C1383      F1388   1.378       .  S
C1383      F1389   1.378       .  S
C1386      F1390   1.382       .  S
C1386      F1391   1.384       .  S
C1386      F1392   1.385       .  S
C1393      C1398   1.417       .  A
C1393      C3634   1.408       .  A
C1393      H1400   1.083   1_554  S
C1394      C1395   1.433       .  A
C1394      C3633   1.406       .  A
C1395      C1396   1.399       .  A
C1395      C1402   1.528       .  S
C1396      C1397   1.395       .  A
C1396      H1401   1.082       .  S
C1397      C3638   1.422       .  A
C1398      C3637   1.422       .  A
C1398      C1399   1.518   1_554  S
C1399      F1403   1.381       .  S
C1399      F1404   1.383   1_556  S
C1399      F1405   1.385       .  S
C1402      F1406   1.383       .  S
C1402      F1407   1.378       .  S
C1402      F1408   1.385       .  S
C1409      C1410   1.404       .  A
C1409      C1414   1.405       .  A
C1409      H1416   1.083       .  S
C1410      C1411   1.424       .  A
C1411      C1412   1.403       .  A
C1411      C1418   1.522       .  S
C1412      C1413   1.400       .  A
C1412      H1417   1.084       .  S
C1413      C1414   1.419       .  A
C1414      C1415   1.518       .  S
C1415      F1419   1.375       .  S
C1415      F1420   1.383       .  S
C1415      F1421   1.385       .  S
C1418      F1423   1.383       .  S
C1418      F1424   1.385       .  S
C1418      F3662   1.376       .  S
F1422      C3658   1.377   1_554  S
C1425      C1426   1.401       .  A
C1425      C1430   1.408       .  A
C1425      H1432   1.083       .  S
C1426      C1427   1.420       .  A
C1427      C1428   1.412       .  A
C1427      C1434   1.516       .  S
C1428      C1429   1.404       .  A
C1428      H1433   1.084       .  S
C1429      C1430   1.423       .  A
C1430      C1431   1.517       .  S
C1431      F1435   1.386       .  S
C1431      F1436   1.374       .  S
C1431      F1437   1.383       .  S
C1434      F1438   1.376   1_554  S
C1434      F3679   1.383   1_554  S
C1434      F3680   1.385   1_554  S
F1439      C3674   1.385       .  S
F1440      C3674   1.376       .  S
C1441      C1442   1.403       .  A
C1441      C1446   1.401       .  A
C1441      H1448   1.084       .  S
C1442      C1443   1.419       .  A
C1443      C1444   1.401       .  A
C1443      C1450   1.517       .  S
C1444      C1445   1.400       .  A
C1444      H1449   1.084       .  S
C1445      C1446   1.416       .  A
C1446      C1447   1.520       .  S
C1447      F1451   1.385       .  S
C1447      F1452   1.384       .  S
C1447      F1453   1.381       .  S
C1450      F1454   1.385       .  S
C1450      F1455   1.380       .  S
C1450      F1456   1.382       .  S
C1457      C1458   1.406       .  A
C1457      C1462   1.417       .  A
C1457      H1464   1.082       .  S
C1458      C1459   1.430       .  A
C1459      C1460   1.410       .  A
C1459      C1466   1.525       .  S
C1460      C1461   1.406       .  A
C1460      H1465   1.082       .  S
C1461      C1462   1.428       .  A
C1462      C1463   1.521       .  S
C1463      F1467   1.385       .  S
C1463      F1468   1.383       .  S
C1463      F1469   1.384       .  S
C1466      F1470   1.384       .  S
C1466      F1471   1.385       .  S
C1466      F1472   1.383       .  S
C1473      C1474   1.405       .  A
C1473      C1478   1.410       .  A
C1473      H1480   1.083       .  S
C1474      C1475   1.421       .  A
C1475      C1476   1.412       .  A
C1475      C1482   1.517       .  S
C1476      C1477   1.402       .  A
C1476      H1481   1.082       .  S
C1477      C1478   1.418       .  A
C1478      C1479   1.518       .  S
C1479      F1483   1.385       .  S
C1479      F1484   1.382       .  S
C1479      F1485   1.381       .  S
C1482      F1486   1.385       .  S
C1482      F1487   1.379       .  S
C1482      F1488   1.383       .  S
C1489      C1490   1.404       .  A
C1489      C1494   1.404       .  A
C1489      H1496   1.085       .  S
C1490      C1491   1.418       .  A
C1491      C1492   1.415       .  A
C1491      C1498   1.516       .  S
C1492      C1493   1.408       .  A
C1492      H1497   1.083       .  S
C1493      C1494   1.418       .  A
C1494      C1495   1.517       .  S
C1495      F1499   1.384       .  S
C1495      F1500   1.382       .  S
C1495      F1501   1.383       .  S
C1498      F1502   1.383       .  S
C1498      F1503   1.383       .  S
C1498      F1504   1.385       .  S
C1505      C1506   1.409       .  A
C1505      C1510   1.411       .  A
C1505      H1512   1.083   1_554  S
C1506      C1507   1.415       .  A
C1507      C1508   1.414       .  A
C1507      C1514   1.516       .  S
C1508      C1509   1.409       .  A
C1508      H1513   1.083       .  S
C1509      C1510   1.413       .  A
C1510      C1511   1.515       .  S
C1511      F1515   1.385   1_554  S
C1511      F1516   1.377       .  S
C1511      F1517   1.383       .  S
C1514      F1518   1.385       .  S
C1514      F1519   1.376       .  S
C1514      F1520   1.382       .  S
C1521      C1522   1.406       .  A
C1521      C1526   1.403       .  A
C1521      H1528   1.083       .  S
C1522      C1523   1.433       .  A
C1523      C1524   1.410       .  A
C1523      C1530   1.523       .  S
C1524      C1525   1.401       .  A
C1524      H1529   1.082       .  S
C1525      C1526   1.424       .  A
C1526      C1527   1.520       .  S
C1527      F1531   1.385       .  S
C1527      F1532   1.382       .  S
C1527      F1533   1.382       .  S
C1530      F1535   1.382       .  S
C1530      F1536   1.385       .  S
C1530      F3774   1.382       .  S
F1534      C3770   1.383       .  S
C1537      C1538   1.406       .  A
C1537      C1542   1.411       .  A
C1537      H1544   1.081       .  S
C1538      C1539   1.430       .  A
C1539      C1540   1.420       .  A
C1539      C1546   1.521       .  S
C1540      C1541   1.409       .  A
C1540      H1545   1.082       .  S
C1541      C1542   1.431       .  A
C1542      C1543   1.525       .  S
C1543      F1547   1.385       .  S
C1543      F1548   1.384       .  S
C1543      F1549   1.383       .  S
C1546      F1550   1.383       .  S
C1546      F1551   1.381       .  S
C1546      F1552   1.385       .  S
C1553      C1554   1.412       .  A
C1553      C1558   1.427       .  A
C1553      H1560   1.082       .  S
C1554      C1555   1.426       .  A
C1555      C1556   1.409       .  A
C1555      C1562   1.524       .  S
C1556      C1557   1.409       .  A
C1556      H1561   1.081       .  S
C1557      C1558   1.427       .  A
C1558      C1559   1.517       .  S
C1559      F1563   1.384       .  S
C1559      F1564   1.384       .  S
C1559      F1565   1.383       .  S
C1562      F1566   1.383       .  S
C1562      F1567   1.383       .  S
C1562      F1568   1.385       .  S
C1569      C1570   1.400       .  A
C1569      C1574   1.409       .  A
C1569      H1576   1.083       .  S
C1570      C1571   1.414       .  A
C1571      C1572   1.403       .  A
C1571      C1578   1.519       .  S
C1572      C1573   1.409       .  A
C1572      H1577   1.084       .  S
C1573      C1574   1.426       .  A
C1574      C1575   1.520       .  S
C1575      F1579   1.385       .  S
C1575      F1580   1.381       .  S
C1575      F1581   1.383       .  S
C1578      F1582   1.383       .  S
C1578      F1583   1.380       .  S
C1578      F1584   1.385       .  S
C1585      C1586   1.405       .  A
C1585      C1590   1.411       .  A
C1585      H1592   1.085       .  S
C1586      C1587   1.416       .  A
C1587      C1588   1.421       .  A
C1587      C1594   1.517       .  S
C1588      C1589   1.412       .  A
C1588      H1593   1.083       .  S
C1589      C1590   1.418       .  A
C1590      C1591   1.514       .  S
C1591      F1595   1.384       .  S
C1591      F1596   1.384       .  S
C1591      F1597   1.380       .  S
C1594      F1598   1.382       .  S
C1594      F1599   1.379       .  S
C1594      F1600   1.384       .  S
C1601      C1602   1.408       .  A
C1601      C1606   1.406       .  A
C1601      H1608   1.084       .  S
C1602      C3843   1.411       .  A
C1603      C1604   1.405       .  A
C1603      C3842   1.412       .  A
C1603      C1610   1.519       .  S
C1604      C3845   1.407       .  A
C1604      H1609   1.084       .  S
C1605      C1606   1.408       .  A
C1605      C3844   1.406       .  A
C1606      C1607   1.517       .  S
C1607      F1611   1.384       .  S
C1607      F1613   1.382       .  S
C1607      F3852   1.384       .  S
C1610      F1614   1.382       .  S
C1610      F3855   1.384       .  S
C1610      F3856   1.385       .  S
F1612      C3847   1.381       .  S
F1615      C3850   1.383       .  S
F1616      C3850   1.385       .  S
C1617      C1618   1.402       .  A
C1617      C1622   1.402       .  A
C1617      H1624   1.083       .  S
C1618      C1619   1.425       .  A
C1619      C1620   1.414       .  A
C1619      C1626   1.518       .  S
C1620      C1621   1.403       .  A
C1620      H1625   1.083       .  S
C1621      C1622   1.422       .  A
C1622      C1623   1.521       .  S
C1623      F1627   1.385       .  S
C1623      F1628   1.380       .  S
C1623      F1629   1.382       .  S
C1626      F1630   1.383       .  S
C1626      F1631   1.382       .  S
C1626      F1632   1.385       .  S
C1633      C1634   1.409       .  A
C1633      C1638   1.413       .  A
C1633      H1640   1.083       .  S
C1634      C1635   1.423       .  A
C1635      C1636   1.402       .  A
C1635      C1642   1.524       .  S
C1636      C1637   1.405       .  A
C1636      H1641   1.083       .  S
C1637      C1638   1.419       .  A
C1638      C1639   1.518       .  S
C1639      F1643   1.385       .  S
C1639      F1644   1.383       .  S
C1639      F1645   1.382       .  S
C1642      F1646   1.383       .  S
C1642      F1647   1.380       .  S
C1642      F1648   1.385       .  S
C1649      C1650   1.410       .  A
C1649      C1654   1.409       .  A
C1649      H1656   1.082       .  S
C1650      C3891   1.428       .  A
C1651      C1652   1.399       .  A
C1651      C3890   1.426       .  A
C1651      C1658   1.527       .  S
C1652      C3893   1.401       .  A
C1652      H1657   1.082       .  S
C1653      C2466   1.478       .  S
C1653      C1654   1.415       .  A
C1653      C3892   1.401       .  A
C1654      C1655   1.518       .  S
C1655      F1659   1.384       .  S
C1655      F1660   1.384       .  S
C1655      F1661   1.383       .  S
C1658      F1662   1.383       .  S
C1658      F1663   1.382       .  S
C1658      F1664   1.385       .  S
C1665      C1666   1.402       .  A
C1665      C1670   1.407       .  A
C1665      H1672   1.083       .  S
C1666      C1667   1.425       .  A
C1667      C1668   1.397       .  A
C1667      C1674   1.522       .  S
C1668      C1669   1.402       .  A
C1668      H1673   1.083       .  S
C1669      C1670   1.429       .  A
C1670      C1671   1.524       .  S
C1671      F1676   1.384       .  S
C1671      F1677   1.382       .  S
C1671      F3915   1.385       .  S
C1674      F1678   1.383       .  S
C1674      F1679   1.383       .  S
C1674      F1680   1.385       .  S
F1675      C3911   1.386       .  S
C1681      C1682   1.417       .  A
C1681      C1686   1.412       .  A
C1681      H1688   1.082       .  S
C1682      C1683   1.417       .  A
C1683      C1684   1.404       .  A
C1683      C3930   1.524       .  S
C1684      C1685   1.416       .  A
C1684      H1689   1.081       .  S
C1685      C1686   1.415       .  A
C1686      C1687   1.519       .  S
C1687      F1691   1.382       .  S
C1687      F1692   1.383       .  S
C1687      F1693   1.385       .  S
C1690      C3923   1.524       .  S
C1690      F1694   1.385       .  S
C1690      F1695   1.384       .  S
C1690      F1696   1.382       .  S
C1697      C1698   1.406       .  A
C1697      C1702   1.401       .  A
C1697      H1704   1.083       .  S
C1698      C1699   1.423       .  A
C1699      C1700   1.404       .  A
C1699      C1706   1.519       .  S
C1700      C1701   1.400       .  A
C1700      H1705   1.084       .  S
C1701      C1702   1.415       .  A
C1702      C1703   1.520       .  S
C1703      F1707   1.385       .  S
C1703      F1708   1.383       .  S
C1703      F1709   1.380       .  S
C1706      F1710   1.382       .  S
C1706      F1711   1.383       .  S
C1706      F1712   1.385       .  S
C1713      C1714   1.406       .  A
C1713      C1718   1.408       .  A
C1713      H1720   1.085       .  S
C1714      C1715   1.416       .  A
C1715      C1716   1.418       .  A
C1715      C1722   1.515       .  S
C1716      C1717   1.411       .  A
C1716      H1721   1.083       .  S
C1717      C1718   1.415       .  A
C1718      C1719   1.513       .  S
C1719      F1723   1.384       .  S
C1719      F1724   1.384       .  S
C1719      F1725   1.380       .  S
C1722      F1726   1.384       .  S
C1722      F1727   1.383       .  S
C1722      F1728   1.381       .  S
C1729      C1730   1.406       .  A
C1729      C1734   1.411       .  A
C1729      H1736   1.082       .  S
C1730      C1731   1.426       .  A
C1731      C1732   1.420       .  A
C1731      C1738   1.517       .  S
C1732      C1733   1.408       .  A
C1732      H1737   1.082       .  S
C1733      C1734   1.427       .  A
C1734      C1735   1.522       .  S
C1735      F1739   1.385       .  S
C1735      F1740   1.381       .  S
C1735      F1741   1.383       .  S
C1738      F1742   1.382       .  S
C1738      F1743   1.380       .  S
C1738      F1744   1.385       .  S
C1745      C1746   1.410       .  A
C1745      C1750   1.402       .  A
C1745      H1752   1.082       .  S
C1746      C1747   1.412       .  A
C1747      C1748   1.411       .  A
C1747      C1754   1.515       .  S
C1748      C1749   1.415       .  A
C1748      H1753   1.082       .  S
C1749      C1750   1.423       .  A
C1750      C1751   1.525       .  S
C1751      F1755   1.385       .  S
C1751      F1756   1.381       .  S
C1751      F1757   1.378       .  S
C1754      F1758   1.384       .  S
C1754      F1759   1.380   1_554  S
C1754      F1760   1.385       .  S
C1761      C1762   1.416       .  A
C1761      C1766   1.414       .  A
C1761      H1768   1.084       .  S
C1762      C1763   1.424       .  A
C1763      C1764   1.403       .  A
C1763      C4010   1.524       .  S
C1764      C1765   1.410       .  A
C1764      H1769   1.084       .  S
C1765      C1766   1.417       .  A
C1766      C1767   1.519       .  S
C1767      F1771   1.381       .  S
C1767      F1772   1.384       .  S
C1767      F1773   1.385       .  S
C1770      C4003   1.524       .  S
C1770      F1774   1.382       .  S
C1770      F1775   1.381   1_556  S
C1770      F1776   1.385   1_556  S
C1777      C1778   1.408       .  A
C1777      C1782   1.404       .  A
C1777      H4024   1.081       .  S
C1778      C1779   1.420       .  A
C1779      C1780   1.405       .  A
C1779      C1786   1.518       .  S
C1780      C1781   1.407       .  A
C1780      H1785   1.082       .  S
C1781      C1782   1.424       .  A
C1782      C4023   1.524       .  S
C1783      C4022   1.521       .  S
C1783      F1787   1.384       .  S
C1783      F1788   1.384       .  S
C1783      F4029   1.382       .  S
H1784      C4017   1.082       .  S
C1786      F1791   1.384       .  S
C1786      F1792   1.385       .  S
C1786      F4030   1.382       .  S
F1789      C4023   1.384       .  S
F1790      C4026   1.382       .  S
C1793      C1794   1.404       .  A
C1793      C1798   1.403       .  A
C1793      H1800   1.083       .  S
C1794      C1795   1.421       .  A
C1795      C1796   1.409       .  A
C1795      C1802   1.520       .  S
C1796      C1797   1.403       .  A
C1796      H1801   1.079       .  S
C1797      C1798   1.418       .  A
C1798      C1799   1.519       .  S
C1799      F1803   1.385       .  S
C1799      F1804   1.384       .  S
C1799      F1805   1.382       .  S
C1802      F1806   1.383       .  S
C1802      F1807   1.383       .  S
C1802      F1808   1.385       .  S
C1809      C1810   1.405       .  A
C1809      C1814   1.412       .  A
C1809      H1816   1.063       .  S
C1810      C1811   1.419       .  A
C1811      C1812   1.408       .  A
C1811      C1818   1.518       .  S
C1812      C1813   1.404       .  A
C1812      H1817   1.082       .  S
C1813      C1814   1.415       .  A
C1814      C1815   1.519       .  S
C1815      F1819   1.384       .  S
C1815      F1820   1.383       .  S
C1815      F1821   1.383       .  S
C1818      F1822   1.382       .  S
C1818      F1823   1.382       .  S
C1818      F1824   1.385       .  S
C1825      C1826   1.402       .  A
C1825      C1830   1.410       .  A
C1825      H1832   1.083       .  S
C1826      C1827   1.412       .  A
C1827      C1828   1.404       .  A
C1827      C1834   1.517       .  S
C1828      C1829   1.408       .  A
C1828      H1833   1.083       .  S
C1829      C1830   1.419       .  A
C1830      C1831   1.512       .  S
C1831      F1835   1.385       .  S
C1831      F1836   1.372       .  S
C1831      F1837   1.383       .  S
C1834      F1838   1.378       .  S
C1834      F1839   1.382       .  S
C1834      F1840   1.385       .  S
C1841      C1842   1.405       .  A
C1841      C1846   1.413       .  A
C1841      H1848   1.084       .  S
C1842      C1843   1.413       .  A
C1843      C1844   1.414       .  A
C1843      C1850   1.515       .  S
C1844      C1845   1.409       .  A
C1844      H1849   1.083       .  S
C1845      C1846   1.419       .  A
C1846      C1847   1.519       .  S
C1847      F1851   1.385       .  S
C1847      F1852   1.383       .  S
C1847      F1853   1.382       .  S
C1850      F1854   1.382       .  S
C1850      F1855   1.379       .  S
C1850      F1856   1.384       .  S
C1857      C1858   1.408       .  A
C1857      C1862   1.422       .  A
C1857      H1864   1.083       .  S
C1858      C1859   1.426       .  A
C1859      C1860   1.406       .  A
C1859      C1866   1.524       .  S
C1860      C1861   1.405       .  A
C1860      H1865   1.082       .  S
C1861      C1862   1.427       .  A
C1862      C1863   1.518       .  S
C1863      F1867   1.385       .  S
C1863      F1868   1.383       .  S
C1863      F1869   1.382       .  S
C1866      F1870   1.380       .  S
C1866      F1871   1.382       .  S
C1866      F1872   1.385       .  S
C1873      C1874   1.404       .  A
C1873      C1878   1.417       .  A
C1873      H1880   1.082       .  S
C1874      C1875   1.427       .  A
C1875      C1876   1.404       .  A
C1875      C1882   1.522       .  S
C1876      C1877   1.405       .  A
C1876      H1881   1.082       .  S
C1877      C1878   1.432       .  A
C1878      C1879   1.521       .  S
C1879      F1883   1.385       .  S
C1879      F1884   1.383       .  S
C1879      F1885   1.383       .  S
C1882      F1886   1.382       .  S
C1882      F1887   1.383       .  S
C1882      F1888   1.385       .  S
C1889      C1890   1.414       .  A
C1889      C1894   1.409       .  A
C1889      H1896   1.082       .  S
C1890      C1891   1.416       .  A
C1891      C1892   1.400       .  A
C1891      C1898   1.525   1_554  S
C1892      C1893   1.416       .  A
C1892      H1897   1.081       .  S
C1893      C1894   1.413       .  A
C1894      C1895   1.516       .  S
C1895      F1899   1.384       .  S
C1895      F1900   1.383       .  S
C1895      F1901   1.383       .  S
C1898      F1902   1.384   1_556  S
C1898      F4143   1.383       .  S
C1898      F4144   1.385       .  S
F1903      C4138   1.380       .  S
F1904      C4138   1.385       .  S
C1905      C1906   1.409       .  A
C1905      C1910   1.413       .  A
C1905      H1912   1.083       .  S
C1906      C1907   1.420       .  A
C1907      C1908   1.405       .  A
C1907      C1914   1.518       .  S
C1908      C1909   1.400       .  A
C1908      H1913   1.084       .  S
C1909      C1910   1.412       .  A
C1910      C1911   1.515       .  S
C1911      F1915   1.384       .  S
C1911      F1916   1.383       .  S
C1911      F1917   1.383       .  S
C1914      F1918   1.382       .  S
C1914      F1919   1.384       .  S
C1914      F1920   1.384       .  S
C1921      C1922   1.405       .  A
C1921      C1926   1.406       .  A
C1921      H1928   1.083       .  S
C1922      C1923   1.425       .  A
C1923      C1924   1.410       .  A
C1923      C1930   1.520       .  S
C1924      C1925   1.399       .  A
C1924      H1929   1.083       .  S
C1925      C1926   1.417       .  A
C1926      C1927   1.519       .  S
C1927      F1931   1.385       .  S
C1927      F1932   1.382       .  S
C1927      F1933   1.382       .  S
C1930      F1934   1.383       .  S
C1930      F1935   1.383       .  S
C1930      F1936   1.385       .  S
C1937      C1938   1.400       .  A
C1937      C1942   1.403       .  A
C1937      H1944   1.083       .  S
C1938      C4179   1.418       .  A
C1939      C1940   1.412       .  A
C1939      C4178   1.417       .  A
C1939      C1946   1.517       .  S
C1940      C4181   1.407       .  A
C1940      H1945   1.083       .  S
C1941      C1942   1.431       .  A
C1941      C4180   1.407       .  A
C1942      C1943   1.527       .  S
C1943      F1947   1.385       .  S
C1943      F1948   1.384       .  S
C1943      F1949   1.384       .  S
C1946      F1950   1.385       .  S
C1946      F1951   1.383       .  S
C1946      F1952   1.383       .  S
C1953      C1954   1.406       .  A
C1953      C1958   1.398       .  A
C1953      H1960   1.082       .  S
C1954      C1955   1.424       .  A
C1955      C1956   1.410       .  A
C1955      C1962   1.521       .  S
C1956      C1957   1.406       .  A
C1956      H1961   1.082       .  S
C1957      C1958   1.425       .  A
C1958      C1959   1.527       .  S
C1959      F1963   1.385       .  S
C1959      F1964   1.383       .  S
C1959      F1965   1.383       .  S
C1962      F1966   1.382       .  S
C1962      F1967   1.383       .  S
C1962      F1968   1.385       .  S
C1969      C1970   1.410       .  A
C1969      C1974   1.417       .  A
C1969      H1976   1.083       .  S
C1970      C1971   1.415       .  A
C1971      C1972   1.416       .  A
C1971      C1978   1.516       .  S
C1972      C1973   1.410       .  A
C1972      H1977   1.082       .  S
C1973      C1974   1.416       .  A
C1974      C1975   1.515       .  S
C1975      F1979   1.383       .  S
C1975      F1980   1.376       .  S
C1975      F1981   1.384       .  S
C1978      F1982   1.383       .  S
C1978      F1983   1.384       .  S
C1978      F1984   1.382       .  S
C1985      C1986   1.400       .  A
C1985      C1990   1.406       .  A
C1985      H1992   1.083       .  S
C1986      C1987   1.421       .  A
C1987      C1988   1.410       .  A
C1987      C1994   1.515       .  S
C1988      C1989   1.402       .  A
C1988      H1993   1.082       .  S
C1989      C1990   1.423       .  A
C1990      C1991   1.519       .  S
C1991      F1995   1.385       .  S
C1991      F1996   1.382       .  S
C1991      F1997   1.383       .  S
C1994      F1998   1.382       .  S
C1994      F1999   1.381       .  S
C1994      F2000   1.385       .  S
C2001      C2002   1.413       .  A
C2001      C2006   1.408       .  A
C2001      H2008   1.082       .  S
C2002      C2003   1.420       .  A
C2003      C2004   1.400       .  A
C2003      C2010   1.523       .  S
C2004      C2005   1.410       .  A
C2004      H2009   1.082       .  S
C2005      C2006   1.417       .  A
C2006      C2007   1.520       .  S
C2007      F2012   1.383       .  S
C2007      F4251   1.385       .  S
C2007      F4253   1.381       .  S
C2010      F2014   1.383       .  S
C2010      F2015   1.381       .  S
C2010      F2016   1.385       .  S
F2011      C4247   1.385       .  S
F2013      C4247   1.382       .  S
C2017      C2018   1.402       .  A
C2017      C2022   1.403       .  A
C2017      H2024   1.084       .  S
C2018      C2019   1.418       .  A
C2019      C2020   1.406       .  A
C2019      C2026   1.520       .  S
C2020      C2021   1.405       .  A
C2020      H2025   1.084       .  S
C2021      C2022   1.419       .  A
C2022      C2023   1.520       .  S
C2023      F2028   1.382       .  S
C2023      F2029   1.383       .  S
C2023      F4267   1.385   1_554  S
C2026      F2030   1.382       .  S
C2026      F2031   1.383       .  S
C2026      F2032   1.385       .  S
F2027      C4263   1.385       .  S
C2033      C2034   1.400       .  A
C2033      C2038   1.410       .  A
C2033      H2040   1.082       .  S
C2034      C4275   1.432       .  A
C2035      C2036   1.412       .  A
C2035      C4274   1.435       .  A
C2035      C2042   1.525       .  S
C2036      C4277   1.401       .  A
C2036      H2041   1.082       .  S
C2037      C2038   1.434       .  A
C2037      C4276   1.401       .  A
C2038      C2039   1.525       .  S
C2039      F2043   1.383       .  S
C2039      F2044   1.385       .  S
C2039      F4285   1.380       .  S
C2042      F2047   1.383       .  S
C2042      F2048   1.385       .  S
C2042      F4286   1.383   1_554  S
F2045      C4279   1.381       .  S
F2046      C4282   1.383       .  S
C2049      C2050   1.404       .  A
C2049      C2054   1.404       .  A
C2049      H2056   1.083       .  S
C2050      C2051   1.422       .  A
C2051      C2052   1.411       .  A
C2051      C2058   1.514       .  S
C2052      C2053   1.402       .  A
C2052      H2057   1.081       .  S
C2053      C2054   1.422       .  A
C2054      C2055   1.520       .  S
C2055      F2059   1.385       .  S
C2055      F2060   1.381       .  S
C2055      F2061   1.383       .  S
C2058      F2062   1.381       .  S
C2058      F2063   1.382       .  S
C2058      F2064   1.385       .  S
C2065      C2066   1.409       .  A
C2065      C2070   1.406       .  A
C2065      H2072   1.083       .  S
C2066      C2067   1.421       .  A
C2067      C2068   1.415       .  A
C2067      C2074   1.519       .  S
C2068      C2069   1.409       .  A
C2068      H2073   1.079       .  S
C2069      C2070   1.420       .  A
C2070      C2071   1.521       .  S
C2071      F2075   1.385       .  S
C2071      F2076   1.385       .  S
C2071      F2077   1.383       .  S
C2074      F2078   1.384       .  S
C2074      F2079   1.383       .  S
C2074      F2080   1.384       .  S
C2081      C2082   1.404       .  A
C2081      C2086   1.400       .  A
C2081      H2088   1.083       .  S
C2082      C2083   1.413       .  A
C2083      C2084   1.400       .  A
C2083      C2090   1.516       .  S
C2084      C2085   1.405       .  A
C2084      H2089   1.083       .  S
C2085      C2086   1.418       .  A
C2086      C2087   1.518       .  S
C2087      F2091   1.385       .  S
C2087      F2092   1.380       .  S
C2087      F2093   1.382       .  S
C2090      F2094   1.383       .  S
C2090      F2095   1.378       .  S
C2090      F2096   1.384       .  S
C2097      C2098   1.392       .  A
C2097      C2102   1.407       .  A
C2097      H2104   1.086       .  S
C2098      C2099   1.423       .  A
C2099      C2100   1.416       .  A
C2099      C2106   1.514       .  S
C2100      C2101   1.408       .  A
C2100      H2105   1.084       .  S
C2101      C2102   1.426       .  A
C2102      C2103   1.504       .  S
C2103      F2107   1.384       .  S
C2103      F2108   1.376       .  S
C2103      F2109   1.375       .  S
C2106      F2110   1.371       .  S
C2106      F2111   1.383       .  S
C2106      F2112   1.385       .  S
C2113      C2114   1.410       .  A
C2113      C2118   1.408       .  A
C2113      H2120   1.082       .  S
C2114      C2115   1.426       .  A
C2115      C2116   1.418       .  A
C2115      C2122   1.516       .  S
C2116      C2117   1.404       .  A
C2116      H2121   1.083       .  S
C2117      C2118   1.413       .  A
C2118      C2119   1.517       .  S
C2119      F2123   1.384       .  S
C2119      F2124   1.383       .  S
C2119      F2125   1.382       .  S
C2122      F2126   1.382       .  S
C2122      F2127   1.380       .  S
C2122      F2128   1.385       .  S
C2129      C2130   1.404       .  A
C2129      C2134   1.404       .  A
C2129      H2136   1.081       .  S
C2130      C2131   1.424       .  A
C2131      C2132   1.421       .  A
C2131      C2138   1.517       .  S
C2132      C2133   1.408       .  A
C2132      H2137   1.083       .  S
C2133      C2134   1.421       .  A
C2134      C2135   1.520       .  S
C2135      F2139   1.384       .  S
C2135      F2140   1.383       .  S
C2135      F2141   1.381       .  S
C2138      F2142   1.384       .  S
C2138      F2143   1.383       .  S
C2138      F2144   1.385       .  S
C2145      C2146   1.406       .  A
C2145      C2150   1.411       .  A
C2145      H2152   1.083       .  S
C2146      C2147   1.418       .  A
C2147      C2148   1.400       .  A
C2147      C2154   1.529       .  S
C2148      C2149   1.402       .  A
C2148      H2153   1.082       .  S
C2149      C2150   1.416       .  A
C2150      C2151   1.517       .  S
C2151      F2155   1.383       .  S
C2151      F2156   1.382       .  S
C2151      F2157   1.385       .  S
C2154      F2158   1.383       .  S
C2154      F2159   1.373       .  S
C2154      F2160   1.384       .  S
C2161      C2162   1.412       .  A
C2161      C2166   1.414       .  A
C2161      H2168   1.079       .  S
C2162      C2163   1.412       .  A
C2163      C2164   1.404       .  A
C2163      C2170   1.519       .  S
C2164      C2165   1.407       .  A
C2164      H2169   1.050       .  S
C2165      C2166   1.413       .  A
C2166      C2167   1.515       .  S
C2167      F2171   1.384       .  S
C2167      F2172   1.383       .  S
C2167      F2173   1.379       .  S
C2170      F2174   1.384       .  S
C2170      F2175   1.384       .  S
C2170      F2176   1.383       .  S
C2177      C2182   1.402       .  A
C2177      C4418   1.404       .  A
C2177      H2184   1.082       .  S
C2178      C2179   1.424       .  A
C2178      C4417   1.407       .  A
C2179      C2180   1.405       .  A
C2179      C2186   1.522       .  S
C2180      C2181   1.406       .  A
C2180      H2185   1.082       .  S
C2181      C4422   1.423       .  A
C2182      C4421   1.426       .  A
C2182      C2183   1.521       .  S
C2183      F2187   1.385       .  S
C2183      F2188   1.381       .  S
C2183      F4429   1.384   1_554  S
C2186      F2191   1.383       .  S
C2186      F2192   1.385       .  S
C2186      F4430   1.383       .  S
F2189      C4423   1.383       .  S
F2190      C4426   1.383   1_554  S
C2193      C2194   1.404       .  A
C2193      C2198   1.409       .  A
C2193      H2200   1.081       .  S
C2194      C2195   1.417       .  A
C2195      C2196   1.401       .  A
C2195      C2202   1.519       .  S
C2196      C2197   1.402       .  A
C2196      H2201   1.082       .  S
C2197      C2198   1.417       .  A
C2198      C2199   1.519       .  S
C2199      F2203   1.384       .  S
C2199      F2204   1.383       .  S
C2199      F2205   1.381       .  S
C2202      F2206   1.381       .  S
C2202      F2207   1.382       .  S
C2202      F2208   1.385       .  S
C2209      C2210   1.403       .  A
C2209      C2214   1.411       .  A
C2209      H2216   1.083       .  S
C2210      C2211   1.416       .  A
C2211      C2212   1.407       .  A
C2211      C2218   1.521       .  S
C2212      C2213   1.407       .  A
C2212      H2217   1.083       .  S
C2213      C2214   1.422       .  A
C2214      C2215   1.518       .  S
C2215      F2219   1.385       .  S
C2215      F2220   1.383       .  S
C2215      F2221   1.382       .  S
C2218      F2222   1.383       .  S
C2218      F2223   1.382       .  S
C2218      F2224   1.385       .  S
C2225      C2226   1.402       .  A
C2225      C2230   1.406       .  A
C2225      H2232   1.082       .  S
C2226      C4467   1.424       .  A
C2227      C2228   1.416       .  A
C2227      C4466   1.424       .  A
C2227      C2234   1.519   1_556  S
C2228      C4469   1.407       .  A
C2228      H2233   1.082   1_556  S
C2229      C2230   1.425       .  A
C2229      C4468   1.405       .  A
C2230      C2231   1.521       .  S
C2231      F2235   1.385       .  S
C2231      F2236   1.382       .  S
C2231      F2237   1.380       .  S
C2234      F2238   1.383       .  S
C2234      F2239   1.383   1_554  S
C2234      F2240   1.385       .  S
O2241      C2256   1.259       .  A
O2241     Al2249   1.889       .  S
C2242      O2252   1.265       .  A
C2242      O2243   1.269       .  A
C2242      C4437   1.481       .  S
O2243     Al2245   1.938       .  S
O2244      C2246   1.255       .  A
O2244     Al2245   1.886       .  S
Al2245     O2253   1.879       .  S
C2246      O2259   1.268       .  A
C2246      C4405   1.487       .  S
O2247     Al2249   1.925       .  S
O2248      C2261   1.262       .  A
O2248     Al2258   1.877       .  S
Al2249     O2262   1.940       .  S
Al2249     O2254   1.778       .  S
O2250     Al2258   1.912       .  S
O2251     Al2258   1.918       .  S
O2253      C2260   1.252       .  A
O2254     Al2258   1.777       .  S
O2255      C2256   1.264       .  A
C2256      C4386   1.476       .  S
C2257      C4469   1.499       .  S
C2260      C4421   1.497   1_556  S
C2261      O2262   1.269       .  A
C2261      C4453   1.484       .  S
O2263      C2278   1.260       .  A
O2263     Al2271   1.878       .  S
C2264      O2274   1.262       .  A
C2264      O2265   1.262       .  A
C2264      C4450   1.470       .  S
O2265     Al2267   1.901       .  S
O2266      C2268   1.263       .  A
O2266     Al2267   1.911       .  S
Al2267     O2275   1.888       .  S
Al2267     O2277   1.889       .  S
Al2267     O2276   1.778       .  S
C2268      O2281   1.258       .  A
C2268      C4338   1.499       .  S
O2269      C2279   1.267       .  A
O2269     Al2271   1.917       .  S
O2270      C2283   1.261       .  A
O2270     Al2280   1.915       .  S
Al2271     O2284   1.909       .  S
Al2271     O2281   1.930       .  S
Al2271     O2276   1.789       .  S
O2272      C2279   1.271       .  A
O2272     Al2280   1.926       .  S
O2273      C2282   1.260       .  A
O2273     Al2280   1.935       .  S
O2274     Al2280   1.898       .  S
O2275      C2282   1.256       .  A
O2276     Al2280   1.783       .  S
O2277      C2278   1.262       .  A
C2278      C4322   1.463       .  S
C2279      C4370   1.501       .  S
C2282      C4354   1.508       .  S
C2283      O2284   1.259       .  A
C2283      C4434   1.481       .  S
O2285      C2300   1.270       .  A
O2285     Al2293   1.922       .  S
C2286      O2296   1.261       .  A
C2286      O2287   1.263       .  A
C2286      C4290   1.493       .  S
O2287     Al2289   1.931       .  S
O2288      C2290   1.275       .  A
O2288     Al2289   1.950       .  S
Al2289     O2298   1.762       .  S
C2290      C4466   1.500       .  S
O2291      C2301   1.269       .  A
O2292      C2305   1.265       .  A
Al2293     O2306   1.877       .  S
Al2293     O2303   1.900       .  S
O2294      C2301   1.247       .  A
O2294     Al2302   1.864       .  S
O2295      C2304   1.248   1_556  A
O2295     Al2302   1.848       .  S
O2296     Al2302   1.909       .  S
O2298     Al2302   1.756       .  S
O2299      C2300   1.270       .  A
C2300      C4306   1.506       .  S
C2301      C4245   1.501       .  S
C2304      C4274   1.509       .  S
C2305      O2306   1.258       .  A
C2305      C4258   1.469       .  S
O2307      C2322   1.257       .  A
O2307     Al2315   1.879       .  S
C2308      O2318   1.268       .  A
C2308      O2309   1.267       .  A
C2308      C4293   1.488       .  S
O2309     Al2311   1.923       .  S
O2310      C2312   1.258       .  A
O2310     Al2311   1.889       .  S
Al2311     O2319   1.917       .  S
Al2311     O2321   1.929       .  S
Al2311     O2320   1.779       .  S
C2312      O2325   1.266       .  A
C2312      C4210   1.495       .  S
O2313      C2323   1.267       .  A
O2313     Al2315   1.927       .  S
O2314      C2327   1.269       .  A
O2314     Al2324   1.922       .  S
Al2315     O2328   1.932       .  S
Al2315     O2325   1.946       .  S
Al2315     O2320   1.790       .  S
O2316      C2323   1.260       .  A
O2316     Al2324   1.909       .  S
O2317      C2326   1.258       .  A
O2317     Al2324   1.912       .  S
O2318     Al2324   1.921       .  S
O2319      C2326   1.263       .  A
O2320     Al2324   1.781       .  S
O2321      C2322   1.269       .  A
C2322      C4194   1.497       .  S
C2323      C4373   1.496       .  S
C2326      C4226   1.491       .  S
C2327      O2328   1.267       .  A
C2327      C4309   1.508       .  S
O2329      C2344   1.276       .  A
O2329     Al2337   1.947       .  S
C2330      O2340   1.262       .  A
C2330      O2331   1.268       .  A
C2330      C4146   1.483       .  S
O2331     Al2333   1.925       .  S
O2332      C2334   1.262       .  A
O2332     Al2333   1.898       .  S
Al2333     O2342   1.766       .  S
C2334      C4178   1.477       .  S
O2335      C2345   1.275       .  A
O2336      C2349   1.264       .  A
Al2337     O2350   1.871       .  S
Al2337     O2347   1.910       .  S
O2338      C2345   1.249       .  A
O2338     Al2346   1.854       .  S
O2339      C2348   1.264   1_556  A
O2339     Al2346   1.883       .  S
O2340     Al2346   1.920       .  S
O2342     Al2346   1.758       .  S
O2343      C2344   1.266       .  A
C2344      C4162   1.487       .  S
C2345      C4114   1.489       .  S
C2348      C4418   1.493       .  S
C2349      O2350   1.253       .  A
C2349      C4130   1.495       .  S
O2351      C2366   1.267       .  A
O2351     Al2359   1.918       .  S
C2352      O2362   1.267       .  A
C2352      O2353   1.264       .  A
C2352      C4149   1.473       .  S
O2353     Al2355   1.893       .  S
O2354      C2356   1.258       .  A
O2354     Al2355   1.914       .  S
Al2355     O2363   1.930       .  S
Al2355     O2365   1.877       .  S
Al2355     O2364   1.793       .  S
C2356      O2369   1.263       .  A
C2356      C4082   1.502       .  S
O2357      C2367   1.269       .  A
O2357     Al2359   1.942       .  S
O2358      C2371   1.258       .  A
O2358     Al2368   1.914       .  S
Al2359     O2372   1.881       .  S
Al2359     O2369   1.939       .  S
Al2359     O2364   1.801       .  S
O2360      C2367   1.258       .  A
O2360     Al2368   1.887       .  S
O2361      C2370   1.256       .  A
O2361     Al2368   1.909       .  S
O2362     Al2368   1.932       .  S
O2363      C2370   1.260       .  A
O2364     Al2368   1.796       .  S
O2365      C2366   1.259       .  A
C2366      C4066   1.463       .  S
C2367      C4098   1.509       .  S
C2370      C4357   1.492       .  S
C2371      O2372   1.253       .  A
C2371      C4165   1.475       .  S
O2373      C2388   1.274       .  A
O2373     Al2381   1.944       .  S
C2374      O2384   1.265       .  A
C2374      O2375   1.268       .  A
C2374      C4050   1.488       .  S
Al2377     O2385   1.950       .  S
Al2377     O2387   1.891       .  S
Al2377     O2386   1.763       .  S
C2378      O2391   1.258       .  A
C2378      C4181   1.472       .  S
O2379      C2389   1.272       .  A
O2380      C2393   1.263       .  A
Al2381     O2394   1.878       .  S
Al2381     O2391   1.889       .  S
Al2381     O2386   1.776       .  S
O2382      C2389   1.250       .  A
O2382     Al2390   1.840       .  S
O2383     Al2390   1.896       .  S
O2384     Al2390   1.925       .  S
O2385      C2392   1.274       .  A
O2387      C2388   1.265       .  A
C2388      C4034   1.484       .  S
C2389      C3986   1.490       .  S
C2392      C4018   1.491       .  S
C2393      O2394   1.255       .  A
C2393      C4002   1.493       .  S
O2395      C2410   1.260       .  A
O2395     Al2403   1.898       .  S
C2396      O2406   1.265       .  A
C2396      O2397   1.265       .  A
C2396      C4053   1.485       .  S
O2397     Al2399   1.912       .  S
O2398      C2400   1.261       .  A
O2398     Al2399   1.913       .  S
Al2399     O2407   1.906       .  S
Al2399     O2409   1.901       .  S
Al2399     O2408   1.782       .  S
C2400      O2413   1.260       .  A
C2400      C3954   1.491       .  S
O2401      C2411   1.267       .  A
O2401     Al2403   1.928       .  S
O2402      C2415   1.265       .  A
O2402     Al2412   1.917       .  S
Al2403     O2416   1.905       .  S
Al2403     O2413   1.922       .  S
Al2403     O2408   1.796       .  S
O2404      C2411   1.267       .  A
O2404     Al2412   1.910       .  S
O2405      C2414   1.259       .  A
O2405     Al2412   1.927       .  S
O2406     Al2412   1.913       .  S
O2407      C2414   1.260       .  A
O2408     Al2412   1.784       .  S
O2409      C2410   1.264       .  A
C2410      C3938   1.484       .  S
C2411      C4101   1.512       .  S
C2414      C3970   1.510       .  S
C2415      O2416   1.259       .  A
C2415      C4037   1.481       .  S
O2417      C2432   1.271       .  A
O2417     Al2425   1.928       .  S
C2418      O2428   1.268       .  A
C2418      O2419   1.266       .  A
C2418      C3858   1.493       .  S
O2419     Al2421   1.918   1_556  S
O2420      C2422   1.259       .  A
O2420     Al2421   1.905       .  S
Al2421     O2430   1.768       .  S
C2422      C3890   1.487       .  S
O2423      C2433   1.273       .  A
O2424      C2437   1.268       .  A
Al2425     O2438   1.881       .  S
Al2425     O2435   1.903       .  S
O2426      C2433   1.248       .  A
O2426     Al2434   1.853       .  S
O2427      C2436   1.261       .  A
O2427     Al2434   1.891   1_554  S
O2428     Al2434   1.936       .  S
O2430     Al2434   1.763   1_554  S
O2431      C2432   1.270       .  A
C2432      C3874   1.483       .  S
C2433      C3906   1.481       .  S
C2436      C3842   1.472       .  S
C2437      O2438   1.256       .  A
C2437      C3922   1.504       .  S
O2439      C2454   1.257       .  A
O2439     Al2447   1.887       .  S
C2440      O2450   1.269       .  A
C2440      O2441   1.267       .  A
C2440      C3861   1.486       .  S
O2441     Al2443   1.920       .  S
O2442      C2444   1.260       .  A
O2442     Al2443   1.914       .  S
Al2443     O2451   1.912       .  S
Al2443     O2453   1.922       .  S
Al2443     O2452   1.787       .  S
C2444      O2457   1.261       .  A
C2444      C3826   1.498       .  S
O2445      C2455   1.271       .  A
O2445     Al2447   1.934       .  S
O2446      C2459   1.267       .  A
O2446     Al2456   1.931       .  S
Al2447     O2460   1.893       .  S
Al2447     O2457   1.934       .  S
Al2447     O2452   1.798       .  S
O2448      C2455   1.264       .  A
O2448     Al2456   1.923       .  S
O2449      C2458   1.258       .  A
O2449     Al2456   1.927       .  S
O2450     Al2456   1.920       .  S
O2451      C2458   1.260       .  A
O2452     Al2456   1.792       .  S
O2453      C2454   1.267       .  A
C2454      C3813   1.489       .  S
C2455      C3794   1.505       .  S
C2458      C3778   1.513       .  S
C2459      O2460   1.262       .  A
C2459      C3877   1.493       .  S
O2461      C2476   1.270       .  A
O2461     Al2469   1.935       .  S
C2462      O2472   1.271       .  A
C2462      O2463   1.268       .  A
C2462      C3730   1.490       .  S
O2464      C2466   1.259       .  A
Al2465     O2473   1.883   1_556  S
Al2465     O2475   1.923       .  S
Al2465     O2474   1.780       .  S
O2467      C2477   1.265       .  A
O2468      C2481   1.273       .  A
Al2469     O2482   1.862       .  S
Al2469     O2479   1.910   1_556  S
Al2469     O2474   1.788       .  S
O2470      C2477   1.263       .  A
O2470     Al2478   1.906       .  S
O2471     Al2478   1.934       .  S
O2472     Al2478   1.940       .  S
O2473      C2480   1.249       .  A
O2475      C2476   1.268       .  A
C2476      C3714   1.501       .  S
C2477      C3746   1.494       .  S
C2480      C4277   1.511       .  S
C2481      O2482   1.253       .  A
C2481      C3762   1.498       .  S
O2483      C2498   1.254       .  A
O2483     Al2491   1.869       .  S
C2484      O2494   1.271       .  A
C2484      O2485   1.267       .  A
C2484      C3733   1.494       .  S
O2485     Al2487   1.923       .  S
O2486      C2488   1.248       .  A
O2486     Al2487   1.854       .  S
Al2487     O2495   1.879       .  S
Al2487     O2497   1.909       .  S
Al2487     O2496   1.769       .  S
C2488      O2501   1.274       .  A
C2488      C3698   1.500       .  S
O2489      C2499   1.270       .  A
O2489     Al2491   1.936       .  S
O2490      C2503   1.277       .  A
O2490     Al2500   1.942       .  S
Al2491     O2504   1.934       .  S
Al2491     O2501   1.977       .  S
Al2491     O2496   1.777       .  S
O2492      C2499   1.269       .  A
O2492     Al2500   1.934       .  S
O2493      C2502   1.272       .  A
O2493     Al2500   1.976       .  S
O2494     Al2500   1.935       .  S
O2495      C2502   1.252       .  A
O2496     Al2500   1.767       .  S
O2497      C2498   1.261       .  A
C2498      C3682   1.461       .  S
C2499      C3797   1.517       .  S
C2502      C4229   1.492       .  S
C2503      O2504   1.271       .  A
C2503      C3717   1.503       .  S
O2505      C2520   1.267       .  A
O2505     Al2513   1.913       .  S
C2506      O2516   1.258       .  A
C2506      O2507   1.266       .  A
C2506      C3621   1.462       .  S
O2507     Al2509   1.922       .  S
O2508      C2510   1.261       .  A
O2508     Al2509   1.894       .  S
Al2509     O2517   1.889       .  S
C2510      O2523   1.262       .  A
C2510      C3666   1.489       .  S
O2511      C2521   1.271       .  A
O2511     Al2513   1.942   1_554  S
O2512      C2525   1.261       .  A
O2512     Al2522   1.891   1_556  S
Al2513     O2526   1.917       .  S
Al2513     O2518   1.784   1_556  S
O2514      C2521   1.256       .  A
O2514     Al2522   1.892       .  S
O2515      C2524   1.255       .  A
O2515     Al2522   1.906       .  S
O2518     Al2522   1.783       .  S
O2519      C2520   1.260   1_554  A
C2520      C3650   1.488       .  S
C2521      C3634   1.500       .  S
C2524      C4021   1.486       .  S
C2525      O2526   1.265       .  A
C2525      C3602   1.469       .  S
O2527      C2542   1.262       .  A
O2527     Al2535   1.891       .  S
C2528      O2538   1.262       .  A
C2528      O2529   1.263       .  A
C2528      C3605   1.467       .  S
O2529     Al2531   1.901       .  S
O2530      C2532   1.258       .  A
O2530     Al2531   1.903       .  S
Al2531     O2539   1.877       .  S
Al2531     O2541   1.915       .  S
Al2531     O2540   1.778       .  S
C2532      O2545   1.262       .  A
C2532      C3586   1.492       .  S
O2533      C2543   1.272       .  A
O2533     Al2535   1.933       .  S
O2534      C2547   1.259       .  A
O2534     Al2544   1.904       .  S
Al2535     O2548   1.897       .  S
Al2535     O2545   1.931       .  S
Al2535     O2540   1.782       .  S
O2536      C2543   1.274       .  A
O2536     Al2544   1.955       .  S
O2537      C2546   1.267       .  A
O2537     Al2544   1.954       .  S
O2538     Al2544   1.893       .  S
O2539      C2546   1.251       .  A
O2540     Al2544   1.787       .  S
O2541      C2542   1.266       .  A
C2542      C3570   1.483       .  S
C2543      C3554   1.511       .  S
C2546      C3973   1.508       .  S
C2547      O2548   1.263       .  A
C2547      C3618   1.482       .  S
O2549      C2564   1.274       .  A
O2549     Al2557   1.946       .  S
C2550      O2560   1.261       .  A
C2550      O2551   1.265       .  A
C2550      C3506   1.483       .  S
Al2553     O2561   1.952       .  S
Al2553     O2563   1.894   1_554  S
Al2553     O2562   1.759       .  S
C2554      O2567   1.262       .  A
C2554      C3637   1.493       .  S
O2555      C2565   1.271       .  A
O2556      C2569   1.266   1_554  A
Al2557     O2570   1.884       .  S
Al2557     O2567   1.907   1_556  S
Al2557     O2562   1.784   1_556  S
O2558      C2565   1.250       .  A
O2558     Al2566   1.861       .  S
O2559     Al2566   1.873       .  S
O2560     Al2566   1.906       .  S
O2561      C2568   1.272   1_554  A
O2563      C2564   1.266       .  A
C2564      C3490   1.488       .  S
C2565      C3522   1.494       .  S
C2568      C3845   1.474   1_556  S
C2569      O2570   1.258       .  A
C2569      C3538   1.489       .  S
O2571      C2586   1.259       .  A
O2571     Al2579   1.891       .  S
C2572      O2582   1.265       .  A
C2572      O2573   1.264       .  A
C2572      C3509   1.478       .  S
O2573     Al2575   1.910       .  S
O2574      C2576   1.257       .  A
O2574     Al2575   1.901       .  S
Al2575     O2583   1.888       .  S
Al2575     O2585   1.911       .  S
Al2575     O2584   1.785       .  S
C2576      O2589   1.266       .  A
C2576      C3474   1.501       .  S
O2577      C2587   1.275       .  A
O2577     Al2579   1.941       .  S
O2578      C2591   1.264       .  A
O2578     Al2588   1.913       .  S
Al2579     O2592   1.905       .  S
Al2579     O2589   1.953       .  S
Al2579     O2584   1.793       .  S
O2580      C2587   1.268       .  A
O2580     Al2588   1.936       .  S
O2581      C2590   1.265       .  A
O2581     Al2588   1.944       .  S
O2582     Al2588   1.905       .  S
O2583      C2590   1.253       .  A
O2584     Al2588   1.787       .  S
O2585      C2586   1.266       .  A
C2586      C3458   1.491       .  S
C2587      C3557   1.510       .  S
C2590      C3781   1.506       .  S
C2591      O2592   1.262       .  A
C2591      C3493   1.486       .  S
O2593      C2608   1.273       .  A
O2593     Al2601   1.953       .  S
C2594      O2604   1.272       .  A
C2594      O2595   1.269       .  A
C2594      C3426   1.488       .  S
O2595     Al2597   1.923       .  S
O2596      C2598   1.256       .  A
O2596     Al2597   1.900       .  S
Al2597     O2605   1.895       .  S
Al2597     O2607   1.923       .  S
Al2597     O2606   1.779       .  S
C2598      O2611   1.269       .  A
C2598      C3442   1.500       .  S
O2599      C2609   1.266       .  A
O2599     Al2601   1.946       .  S
O2600      C2613   1.272       .  A
O2600     Al2610   1.944       .  S
Al2601     O2614   1.886       .  S
Al2601     O2611   1.938       .  S
Al2601     O2606   1.784       .  S
O2602      C2609   1.260       .  A
O2602     Al2610   1.902       .  S
O2603      C2612   1.267       .  A
O2603     Al2610   1.930       .  S
O2604     Al2610   1.940       .  S
O2605      C2612   1.251       .  A
O2606     Al2610   1.773       .  S
O2607      C2608   1.268       .  A
C2608      C3410   1.503       .  S
C2609      C3749   1.495       .  S
C2612      C3394   1.503       .  S
C2613      O2614   1.258       .  A
C2613      C3701   1.507       .  S
O2615      C2630   1.255       .  A
O2615     Al2623   1.866       .  S
C2616      O2626   1.270       .  A
C2616      O2617   1.263       .  A
C2616      C3429   1.492       .  S
O2617     Al2619   1.915       .  S
O2618      C2620   1.244       .  A
O2618     Al2619   1.848       .  S
Al2619     O2627   1.865       .  S
Al2619     O2629   1.920       .  S
Al2619     O2628   1.763       .  S
C2620      O2633   1.274       .  A
C2620      C3765   1.492       .  S
O2621      C2631   1.267       .  A
O2621     Al2623   1.924       .  S
O2622      C2635   1.277       .  A
O2622     Al2632   1.940       .  S
Al2623     O2636   1.941       .  S
Al2623     O2633   1.976       .  S
Al2623     O2628   1.773       .  S
O2624      C2631   1.269       .  A
O2624     Al2632   1.926       .  S
O2625      C2634   1.272       .  A
O2625     Al2632   1.979       .  S
O2626     Al2632   1.937       .  S
O2627      C2634   1.252       .  A
O2628     Al2632   1.765       .  S
O2629      C2630   1.263       .  A
C2630      C3685   1.466       .  S
C2631      C3378   1.506       .  S
C2634      C3362   1.485       .  S
C2635      O2636   1.272       .  A
C2635      C3413   1.500       .  S
O2637      C2652   1.259       .  A
O2637     Al2645   1.865       .  S
C2638      O2648   1.262       .  A
C2638      O2639   1.266       .  A
C2638      C3346   1.493       .  S
O2639     Al2641   1.911       .  S
O2640      C2642   1.249       .  A
O2640     Al2641   1.858       .  S
Al2641     O2649   1.863       .  S
Al2641     O2651   1.943       .  S
Al2641     O2650   1.756       .  S
C2642      O2655   1.269       .  A
C2642      C4133   1.496       .  S
O2643      C2653   1.266       .  A
O2643     Al2645   1.917       .  S
O2644      C2657   1.264       .  A
O2644     Al2654   1.889       .  S
Al2645     O2658   1.937       .  S
Al2645     O2655   1.973       .  S
Al2645     O2650   1.774       .  S
O2646      C2653   1.269       .  A
O2646     Al2654   1.920       .  S
O2647      C2656   1.270       .  A
O2647     Al2654   1.960       .  S
O2648     Al2654   1.911       .  S
O2649      C2656   1.255       .  A
O2650     Al2654   1.766       .  S
O2651      C2652   1.266       .  A
C2652      C4069   1.480       .  S
C2653      C3445   1.498       .  S
C2656      C3317   1.484       .  S
C2657      O2658   1.272       .  A
C2657      C3330   1.473       .  S
O2659      C2674   1.252       .  A
O2659     Al2667   1.877       .  S
C2660      O2670   1.264       .  A
C2660      O2661   1.271       .  A
C2660      C3333   1.479       .  S
O2661     Al2663   1.934       .  S
O2662      C2664   1.259       .  A
O2662     Al2663   1.886       .  S
Al2663     O2671   1.927       .  S
Al2663     O2673   1.922       .  S
Al2663     O2672   1.772       .  S
C2664      O2677   1.277       .  A
C2664      C4085   1.503       .  S
O2665      C2675   1.266       .  A
O2665     Al2667   1.935       .  S
O2666      C2679   1.262       .  A
O2666     Al2676   1.876       .  S
Al2667     O2680   1.965       .  S
Al2667     O2677   1.983       .  S
Al2667     O2672   1.780       .  S
O2668      C2675   1.255       .  A
O2668     Al2676   1.902       .  S
O2669      C2678   1.258       .  A
O2669     Al2676   1.918       .  S
O2670     Al2676   1.889       .  S
O2671      C2678   1.266       .  A
O2672     Al2676   1.776       .  S
O2673      C2674   1.266       .  A
C2674      C4117   1.497       .  S
C2675      C3381   1.510       .  S
C2678      C3298   1.506       .  S
C2679      O2680   1.278       .  A
C2679      C3349   1.487       .  S
O2681      C2696   1.261       .  A
O2681     Al2689   1.895       .  S
C2682      O2692   1.261       .  A
C2682      O2683   1.261       .  A
C2682      C3269   1.473       .  S
O2683     Al2685   1.905       .  S
O2684      C2686   1.262       .  A
O2684     Al2685   1.918       .  S
Al2685     O2693   1.892       .  S
Al2685     O2695   1.906       .  S
Al2685     O2694   1.786       .  S
C2686      O2699   1.257       .  A
C2686      C3669   1.493       .  S
O2687      C2697   1.267       .  A
O2687     Al2689   1.911       .  S
O2688      C2701   1.261       .  A
O2688     Al2698   1.909       .  S
Al2689     O2702   1.890       .  S
Al2689     O2699   1.913       .  S
Al2689     O2694   1.789       .  S
O2690      C2697   1.268       .  A
O2690     Al2698   1.933       .  S
O2691      C2700   1.263       .  A
O2691     Al2698   1.943       .  S
O2692     Al2698   1.896       .  S
O2693      C2700   1.258       .  A
O2694     Al2698   1.789       .  S
O2695      C2696   1.264       .  A
C2696      C3573   1.479       .  S
C2697      C3282   1.498       .  S
C2700      C3237   1.514       .  S
C2701      O2702   1.258       .  A
C2701      C3250   1.480       .  S
O2703      C2718   1.263       .  A
O2703     Al2711   1.894       .  S
C2704      O2714   1.264       .  A
C2704      O2705   1.265       .  A
C2704      C3253   1.468       .  S
O2705     Al2707   1.912       .  S
O2706      C2708   1.256       .  A
O2706     Al2707   1.889       .  S
Al2707     O2715   1.889       .  S
Al2707     O2717   1.909       .  S
Al2707     O2716   1.779       .  S
C2708      O2721   1.265       .  A
C2708      C3589   1.497       .  S
O2709      C2719   1.273       .  A
O2709     Al2711   1.950       .  S
O2710      C2723   1.265       .  A
O2710     Al2720   1.902       .  S
Al2711     O2724   1.916       .  S
Al2711     O2721   1.939       .  S
Al2711     O2716   1.790       .  S
O2712      C2719   1.255       .  A
O2712     Al2720   1.890       .  S
O2713      C2722   1.257       .  A
O2713     Al2720   1.908       .  S
O2714     Al2720   1.897       .  S
O2715      C2722   1.253       .  A
O2716     Al2720   1.780       .  S
O2717      C2718   1.260       .  A
C2718      C3653   1.485       .  S
C2719      C3218   1.511       .  S
C2722      C3202   1.483       .  S
C2723      O2724   1.264       .  A
C2723      C3266   1.478       .  S
O2725      C2740   1.253       .  A
O2725     Al2733   1.865       .  S
C2726      O2736   1.267       .  A
C2726      O2727   1.274       .  A
C2726      C3170   1.476       .  S
O2727     Al2729   1.948       .  S
O2728      C2730   1.258       .  A
O2728     Al2729   1.894       .  S
Al2729     O2737   1.895       .  S
Al2729     O2739   1.932       .  S
Al2729     O2738   1.778       .  S
C2730      O2743   1.269       .  A
C2730      C4341   1.507       .  S
O2731      C2741   1.261       .  A
O2731     Al2733   1.921       .  S
O2732      C2745   1.265       .  A
O2732     Al2742   1.888       .  S
Al2733     O2746   1.949       .  S
Al2733     O2743   1.955       .  S
Al2733     O2738   1.785       .  S
O2734      C2741   1.262       .  A
O2734     Al2742   1.914       .  S
O2735      C2744   1.256       .  A
O2735     Al2742   1.917       .  S
O2736     Al2742   1.887       .  S
O2737      C2744   1.253       .  A
O2738     Al2742   1.787       .  S
O2739      C2740   1.266       .  A
C2740      C4389   1.477       .  S
C2741      C3285   1.501       .  S
C2744      C3314   1.481       .  S
C2745      O2746   1.273       .  A
C2745      C3189   1.485       .  S
O2747      C2762   1.257       .  A
O2747     Al2755   1.869       .  S
C2748      O2758   1.263       .  A
C2748      O2749   1.264       .  A
C2748      C3186   1.475       .  S
O2749     Al2751   1.911       .  S
O2750      C2752   1.257       .  A
O2750     Al2751   1.884       .  S
Al2751     O2759   1.877       .  S
Al2751     O2761   1.902       .  S
Al2751     O2760   1.772       .  S
C2752      O2765   1.262       .  A
C2752      C4402   1.486       .  S
O2753      C2763   1.266       .  A
O2753     Al2755   1.917       .  S
O2754      C2767   1.264       .  A
O2754     Al2764   1.916       .  S
Al2755     O2768   1.910       .  S
Al2755     O2765   1.933       .  S
Al2755     O2760   1.782       .  S
O2756      C2763   1.273       .  A
O2756     Al2764   1.935       .  S
O2757      C2766   1.267       .  A
O2757     Al2764   1.950       .  S
O2758     Al2764   1.894       .  S
O2759      C2766   1.251       .  A
O2760     Al2764   1.775       .  S
O2761      C2762   1.265       .  A
C2762      C4325   1.470       .  S
C2763      C3221   1.511       .  S
C2766      C3301   1.500       .  S
C2767      O2768   1.265       .  A
C2767      C3173   1.491       .  S
O2769      C2784   1.259       .  A
O2769     Al2777   1.876       .  S
C2770      O2780   1.266       .  A
C2770      O2771   1.264       .  A
C2770      C3138   1.505       .  S
O2771     Al2773   1.912       .  S
O2772      C2774   1.245       .  A
O2772     Al2773   1.863       .  S
Al2773     O2781   1.866       .  S
Al2773     O2783   1.951       .  S
Al2773     O2782   1.757       .  S
C2774      O2787   1.273       .  A
C2774      C3925   1.507       .  S
O2775      C2785   1.274       .  A
O2775     Al2777   1.937       .  S
O2776      C2789   1.272       .  A
O2776     Al2786   1.914       .  S
Al2777     O2790   1.937       .  S
Al2777     O2787   1.999       .  S
Al2777     O2782   1.778       .  S
O2778      C2785   1.265       .  A
O2778     Al2786   1.926       .  S
O2779      C2788   1.274       .  A
O2779     Al2786   1.975       .  S
O2780     Al2786   1.940       .  S
O2781      C2788   1.257       .  A
O2782     Al2786   1.761       .  S
O2783      C2784   1.268       .  A
C2784      C3810   1.477       .  S
C2785      C3154   1.514       .  S
C2788      C3106   1.498       .  S
C2789      O2790   1.271       .  A
C2789      C3122   1.489       .  S
O2791      C2806   1.250       .  A
O2791     Al2799   1.868       .  S
C2792      O2802   1.269       .  A
C2792      O2793   1.270       .  A
C2792      C3125   1.486       .  S
O2793     Al2795   1.938       .  S
O2794      C2796   1.258       .  A
O2794     Al2795   1.870       .  S
Al2795     O2803   1.911       .  S
Al2795     O2805   1.931       .  S
Al2795     O2804   1.763       .  S
C2796      O2809   1.277       .  A
C2796      C3829   1.498       .  S
O2797      C2807   1.263       .  A
O2797     Al2799   1.929       .  S
O2798      C2811   1.263       .  A
O2798     Al2808   1.884       .  S
Al2799     O2812   1.969       .  S
Al2799     O2809   1.985       .  S
Al2799     O2804   1.781       .  S
O2800      C2807   1.258       .  A
O2800     Al2808   1.885       .  S
O2801      C2810   1.255       .  A
O2801     Al2808   1.909       .  S
O2802     Al2808   1.909       .  S
O2803      C2810   1.267       .  A
O2804     Al2808   1.774       .  S
O2805      C2806   1.267       .  A
C2806      C3909   1.494       .  S
C2807      C3090   1.497       .  S
C2810      C3074   1.496       .  S
C2811      O2812   1.279       .  A
C2811      C3141   1.489       .  S
O2813      C2828   1.259       .  A
O2813     Al2821   1.890       .  S
C2814      O2824   1.262       .  A
C2814      O2815   1.266       .  A
C2814      C3042   1.473       .  S
O2815     Al2817   1.933       .  S
O2816      C2818   1.261       .  A
O2816     Al2817   1.885       .  S
Al2817     O2825   1.916       .  S
Al2817     O2827   1.928       .  S
Al2817     O2826   1.773       .  S
C2818      O2831   1.274       .  A
C2818      C3957   1.493       .  S
O2819      C2829   1.264       .  A
O2819     Al2821   1.931       .  S
O2820      C2833   1.259       .  A
O2820     Al2830   1.872       .  S
Al2821     O2834   1.955       .  S
Al2821     O2831   1.969       .  S
Al2821     O2826   1.786       .  S
O2822      C2829   1.265       .  A
O2822     Al2830   1.915       .  S
O2823      C2832   1.268       .  A
O2823     Al2830   1.946       .  S
O2824     Al2830   1.896       .  S
O2825      C2832   1.264       .  A
O2826     Al2830   1.774       .  S
O2827      C2828   1.262       .  A
C2828      C3989   1.497       .  S
C2829      C3157   1.514       .  S
C2832      C3234   1.513       .  S
C2833      O2834   1.274       .  A
C2833      C3061   1.486       .  S
O2835      C2850   1.257       .  A
O2835     Al2843   1.872       .  S
C2836      O2846   1.262       .  A
C2836      O2837   1.264       .  A
C2836      C3058   1.484       .  S
O2837     Al2839   1.917       .  S
O2838      C2840   1.249       .  A
O2838     Al2839   1.857       .  S
Al2839     O2847   1.865       .  S
Al2839     O2849   1.938       .  S
Al2839     O2848   1.762       .  S
C2840      O2853   1.268       .  A
C2840      C4005   1.494       .  S
O2841      C2851   1.270       .  A
O2841     Al2843   1.926       .  S
O2842      C2855   1.269       .  A
O2842     Al2852   1.910       .  S
Al2843     O2856   1.923       .  S
Al2843     O2853   1.970       .  S
Al2843     O2848   1.778       .  S
O2844      C2851   1.259       .  A
O2844     Al2852   1.897       .  S
O2845      C2854   1.267       .  A
O2845     Al2852   1.943       .  S
O2846     Al2852   1.915       .  S
O2847      C2854   1.257       .  A
O2848     Al2852   1.763       .  S
O2849      C2850   1.266       .  A
C2850      C3941   1.470       .  S
C2851      C3093   1.500       .  S
C2854      C3205   1.481       .  S
C2855      O2856   1.268       .  A
C2855      C3045   1.485       .  S
O2857      C2872   1.258       .  A
O2857     Al2865   1.889       .  S
C2858      O2868   1.266       .  A
C2858      O2859   1.264       .  A
C2858      C2994   1.481       .  S
O2859     Al2861   1.919       .  S
O2860      C2862   1.261       .  A
O2860     Al2861   1.892       .  S
Al2861     O2869   1.918       .  S
Al2861     O2871   1.911       .  S
Al2861     O2870   1.774       .  S
C2862      O2875   1.274       .  A
C2862      C3477   1.499       .  S
O2863      C2873   1.265       .  A
O2863     Al2865   1.929       .  S
O2864      C2877   1.265       .  A
O2864     Al2874   1.888       .  S
Al2865     O2878   1.949       .  S
Al2865     O2875   1.974       .  S
Al2865     O2870   1.783       .  S
O2866      C2873   1.261       .  A
O2866     Al2874   1.909       .  S
O2867      C2876   1.263       .  A
O2867     Al2874   1.923       .  S
O2868     Al2874   1.904       .  S
O2869      C2876   1.264       .  A
O2870     Al2874   1.778       .  S
O2871      C2872   1.260       .  A
C2872      C3525   1.492       .  S
C2873      C3026   1.506       .  S
C2876      C3109   1.497       .  S
C2877      O2878   1.272       .  A
C2877      C3010   1.499       .  S
O2879      C2894   1.256       .  A
O2879     Al2887   1.874       .  S
C2880      O2890   1.265       .  A
C2880      O2881   1.261       .  A
C2880      C3013   1.487       .  S
O2881     Al2883   1.921       .  S
O2882      C2884   1.247       .  A
O2882     Al2883   1.863       .  S
Al2883     O2891   1.847       .  S
Al2883     O2893   1.950       .  S
Al2883     O2892   1.752       .  S
C2884      O2897   1.270       .  A
C2884      C3541   1.493       .  S
O2885      C2895   1.267       .  A
O2885     Al2887   1.901       .  S
O2886      C2899   1.270       .  A
O2886     Al2896   1.911       .  S
Al2887     O2900   1.920       .  S
Al2887     O2897   1.980       .  S
Al2887     O2892   1.774       .  S
O2888      C2895   1.269       .  A
O2888     Al2896   1.933       .  S
O2889      C2898   1.278       .  A
O2889     Al2896   1.981       .  S
O2890     Al2896   1.927       .  S
O2891      C2898   1.249       .  A
O2892     Al2896   1.758       .  S
O2893      C2894   1.268       .  A
C2894      C3461   1.470       .  S
C2895      C2978   1.485       .  S
C2898      C3077   1.497       .  S
C2899      O2900   1.266       .  A
C2899      C2997   1.479       .  S
O2901      C2916   1.273       .  A
O2901     Al2909   1.931       .  S
C2902      O2912   1.264       .  A
C2902      O2903   1.266       .  A
C2902      C2946   1.490       .  S
O2903     Al2905   1.918       .  S
O2904      C2906   1.270       .  A
O2904     Al2905   1.952       .  S
Al2905     O2913   1.980       .  S
Al2905     O2915   1.927       .  S
Al2905     O2914   1.769       .  S
C2906      O2919   1.266       .  A
C2906      C3029   1.502       .  S
O2907      C2917   1.271       .  A
O2907     Al2909   1.964       .  S
O2908      C2921   1.266       .  A
O2908     Al2918   1.924       .  S
Al2909     O2922   1.871       .  S
Al2909     O2919   1.907       .  S
Al2909     O2914   1.770       .  S
O2910      C2917   1.247       .  A
O2910     Al2918   1.854       .  S
O2911      C2920   1.249       .  A
O2911     Al2918   1.860       .  S
O2912     Al2918   1.921       .  S
O2913      C2920   1.275       .  A
O2914     Al2918   1.762       .  S
O2915      C2916   1.270       .  A
C2916      C2962   1.506       .  S
C2917      C4197   1.487       .  S
C2920      C3397   1.503       .  S
C2921      O2922   1.255       .  A
C2921      C4261   1.470       .  S
O2923      C2938   1.259       .  A
O2923     Al2931   1.888       .  S
C2924      O2934   1.271       .  A
C2924      O2925   1.268       .  A
C2924      C2949   1.487       .  S
O2925     Al2927   1.918       .  S
O2926      C2928   1.262       .  A
O2926     Al2927   1.912       .  S
Al2927     O2935   1.931       .  S
Al2927     O2937   1.917       .  S
Al2927     O2936   1.780       .  S
C2928      O2941   1.265       .  A
C2928      C4213   1.494       .  S
O2929      C2939   1.266       .  A
O2929     Al2931   1.930       .  S
O2930      C2943   1.272       .  A
O2930     Al2940   1.936       .  S
Al2931     O2944   1.911       .  S
Al2931     O2941   1.936       .  S
Al2931     O2936   1.792       .  S
O2932      C2939   1.258       .  A
O2932     Al2940   1.885       .  S
O2933      C2942   1.254       .  A
O2933     Al2940   1.895       .  S
O2934     Al2940   1.926       .  S
O2935      C2942   1.265       .  A
O2936     Al2940   1.786       .  S
O2937      C2938   1.263       .  A
C2938      C4242   1.497       .  S
C2939      C2981   1.496       .  S
C2942      C3365   1.488       .  S
C2943      O2944   1.263       .  A
C2943      C2965   1.502       .  S
C2945      C2946   1.409       .  A
C2945      C2950   1.413       .  A
C2945      H2952   1.081       .  S
C2946      C2947   1.418       .  A
C2947      C2948   1.407       .  A
C2947      C2954   1.519       .  S
C2948      C2949   1.406       .  A
C2948      H2953   1.084       .  S
C2949      C2950   1.415       .  A
C2950      C2951   1.518       .  S
C2951      F2955   1.385       .  S
C2951      F2956   1.384       .  S
C2951      F2957   1.383       .  S
C2954      F2958   1.383       .  S
C2954      F2959   1.384       .  S
C2954      F2960   1.385       .  S
C2961      C2962   1.404       .  A
C2961      H2968   1.082       .  S
C2962      C2963   1.424       .  A
C2963      C2970   1.519       .  S
C2964      C2965   1.409       .  A
C2964      H2969   1.082       .  S
C2965      C2966   1.427       .  A
C2966      C2967   1.524       .  S
C2967      F2971   1.385       .  S
C2967      F2972   1.382       .  S
C2967      F2973   1.383       .  S
C2970      F2974   1.383       .  S
C2970      F2975   1.382       .  S
C2970      F2976   1.384       .  S
C2977      C2978   1.410       .  A
C2977      C2982   1.415   1_565  A
C2977      H2984   1.083       .  S
C2978      C2979   1.414       .  A
C2979      C2980   1.402   1_565  A
C2979      C2986   1.522       .  S
C2980      C2981   1.412       .  A
C2980      H2985   1.082       .  S
C2981      C2982   1.417       .  A
C2982      C2983   1.516       .  S
C2983      F2987   1.385   1_545  S
C2983      F2988   1.384       .  S
C2983      F2989   1.382       .  S
C2986      F2990   1.383       .  S
C2986      F2991   1.383       .  S
C2986      F2992   1.385   1_565  S
C2993      C2994   1.403       .  A
C2993      C2998   1.406       .  A
C2993      H3000   1.084       .  S
C2994      C2995   1.421       .  A
C2995      C2996   1.406       .  A
C2995      C3002   1.519       .  S
C2996      C2997   1.402       .  A
C2996      H3001   1.083       .  S
C2997      C2998   1.420       .  A
C2998      C2999   1.521       .  S
C2999      F3003   1.385       .  S
C2999      F3004   1.383       .  S
C2999      F3005   1.383       .  S
C3002      F3006   1.383       .  S
C3002      F3007   1.381       .  S
C3002      F3008   1.385       .  S
C3009      C3010   1.413       .  A
C3009      H3016   1.083       .  S
C3010      C3011   1.424       .  A
C3011      C3018   1.519       .  S
C3012      C3013   1.404       .  A
C3012      H3017   1.084       .  S
C3013      C3014   1.413   1_556  A
C3014      C3015   1.518       .  S
C3015      F3019   1.385       .  S
C3015      F3020   1.384   1_554  S
C3015      F3021   1.383   1_554  S
C3018      F3022   1.384       .  S
C3018      F3023   1.383       .  S
C3025      C3026   1.411       .  A
C3025      C3030   1.411   1_565  A
C3025      H3032   1.082       .  S
C3026      C3027   1.423       .  A
C3027      C3028   1.416   1_565  A
C3027      C3034   1.519       .  S
C3028      C3029   1.409       .  A
C3028      H3033   1.082       .  S
C3029      C3030   1.420       .  A
C3030      C3031   1.520       .  S
C3031      F3035   1.385       .  S
C3031      F3036   1.381       .  S
C3031      F3037   1.383       .  S
C3034      F3038   1.385   1_565  S
C3034      F3039   1.382       .  S
C3034      F3040   1.383       .  S
C3041      C3042   1.399       .  A
C3041      C3046   1.405       .  A
C3041      H3048   1.084       .  S
C3042      C3043   1.413       .  A
C3043      C3044   1.409       .  A
C3043      C3050   1.518       .  S
C3044      C3045   1.407       .  A
C3044      H3049   1.083       .  S
C3045      C3046   1.422       .  A
C3046      C3047   1.520       .  S
C3047      F3051   1.385       .  S
C3047      F3052   1.383       .  S
C3047      F3053   1.383       .  S
C3050      F3054   1.384       .  S
C3050      F3055   1.382       .  S
C3050      F3056   1.384       .  S
C3057      C3058   1.400       .  A
C3057      H3064   1.083       .  S
C3058      C3059   1.421       .  A
C3059      C3066   1.518       .  S
C3060      C3061   1.402       .  A
C3060      H3065   1.083       .  S
C3061      C3062   1.422       .  A
C3062      C3063   1.522       .  S
C3063      F3067   1.385       .  S
C3063      F3068   1.384       .  S
C3063      F3069   1.381       .  S
C3066      F3070   1.379       .  S
C3066      F3071   1.382       .  S
C3066      F3072   1.385       .  S
C3073      C3074   1.399       .  A
C3073      C3078   1.401       .  A
C3073      H3080   1.081       .  S
C3074      C3075   1.431       .  A
C3075      C3076   1.411       .  A
C3075      C3082   1.525       .  S
C3076      C3077   1.403       .  A
C3076      H3081   1.082       .  S
C3077      C3078   1.432       .  A
C3078      C3079   1.528       .  S
C3079      F3083   1.385       .  S
C3079      F3084   1.383       .  S
C3079      F3085   1.383       .  S
C3082      F3086   1.380       .  S
C3082      F3087   1.382       .  S
C3082      F3088   1.385       .  S
C3089      C3090   1.403       .  A
C3089      C3094   1.398   1_655  A
C3089      H3096   1.082       .  S
C3090      C3091   1.419       .  A
C3091      C3092   1.418   1_655  A
C3091      C3098   1.517       .  S
C3092      C3093   1.412       .  A
C3092      H3097   1.082       .  S
C3093      C3094   1.430       .  A
C3094      C3095   1.530       .  S
C3095      F3099   1.385   1_455  S
C3095      F3100   1.383       .  S
C3095      F3101   1.384       .  S
C3098      F3102   1.383       .  S
C3098      F3103   1.384       .  S
C3098      F3104   1.385       .  S
C3105      C3106   1.410       .  A
C3105      C3110   1.409       .  A
C3105      H3112   1.083       .  S
C3106      C3107   1.419       .  A
C3107      C3108   1.413       .  A
C3107      C3114   1.518       .  S
C3108      C3109   1.410       .  A
C3108      H3113   1.083       .  S
C3109      C3110   1.419       .  A
C3110      C3111   1.519       .  S
C3111      F3115   1.385       .  S
C3111      F3116   1.381       .  S
C3111      F3117   1.380       .  S
C3114      F3118   1.384       .  S
C3114      F3119   1.383       .  S
C3114      F3120   1.385       .  S
C3121      C3122   1.404       .  A
C3121      C3126   1.409       .  A
C3121      H3128   1.083       .  S
C3122      C3123   1.421       .  A
C3123      C3124   1.409       .  A
C3123      C3130   1.519       .  S
C3124      C3125   1.403       .  A
C3124      H3129   1.083       .  S
C3125      C3126   1.421       .  A
C3126      C3127   1.520       .  S
C3127      F3131   1.385       .  S
C3127      F3132   1.379       .  S
C3127      F3133   1.381       .  S
C3130      F3134   1.383       .  S
C3130      F3135   1.382       .  S
C3130      F3136   1.385       .  S
C3137      C3138   1.407       .  A
C3137      H3144   1.082       .  S
C3138      C3139   1.428       .  A
C3139      C3146   1.511       .  S
C3140      C3141   1.400       .  A
C3140      H3145   1.083       .  S
C3141      C3142   1.421       .  A
C3142      C3143   1.518       .  S
C3143      F3147   1.385       .  S
C3143      F3148   1.383       .  S
C3143      F3149   1.379       .  S
C3146      F3150   1.379       .  S
C3146      F3151   1.380       .  S
C3146      F3152   1.385       .  S
C3153      C3154   1.412       .  A
C3153      C3158   1.422   1_655  A
C3153      H3160   1.082       .  S
C3154      C3155   1.431       .  A
C3155      C3156   1.407   1_655  A
C3155      C3162   1.526       .  S
C3156      C3157   1.406       .  A
C3156      H3161   1.081       .  S
C3157      C3158   1.425       .  A
C3158      C3159   1.518       .  S
C3159      F3163   1.385   1_455  S
C3159      F3164   1.383       .  S
C3159      F3165   1.383       .  S
C3162      F3166   1.382       .  S
C3162      F3167   1.379       .  S
C3162      F3168   1.385       .  S
C3169      C3170   1.405       .  A
C3169      C3174   1.415       .  A
C3169      H3176   1.083       .  S
C3170      C3171   1.412       .  A
C3171      C3172   1.399       .  A
C3171      C3178   1.519       .  S
C3172      C3173   1.407       .  A
C3172      H3177   1.082       .  S
C3173      C3174   1.423       .  A
C3174      C3175   1.521       .  S
C3175      F3179   1.385       .  S
C3175      F3180   1.382       .  S
C3175      F3181   1.383       .  S
C3178      F3182   1.385       .  S
C3178      F3183   1.383       .  S
C3178      F3184   1.382       .  S
C3185      C3186   1.404       .  A
C3185      H3192   1.084       .  S
C3186      C3187   1.415       .  A
C3187      C3194   1.518       .  S
C3188      C3189   1.406       .  A
C3188      H3193   1.084       .  S
C3189      C3190   1.417       .  A
C3190      C3191   1.516       .  S
C3191      F3195   1.385       .  S
C3191      F3196   1.382       .  S
C3191      F3197   1.382       .  S
C3194      F3198   1.384       .  S
C3194      F3199   1.382       .  S
C3194      F3200   1.385   1_556  S
C3201      C3202   1.407       .  A
C3201      C3206   1.408       .  A
C3201      H3208   1.083       .  S
C3202      C3203   1.420       .  A
C3203      C3204   1.402       .  A
C3203      C3210   1.522       .  S
C3204      C3205   1.404       .  A
C3204      H3209   1.083       .  S
C3205      C3206   1.417       .  A
C3206      C3207   1.519       .  S
C3207      F3211   1.385       .  S
C3207      F3212   1.383       .  S
C3207      F3213   1.383       .  S
C3210      F3214   1.382       .  S
C3210      F3215   1.384       .  S
C3210      F3216   1.385       .  S
C3217      C3218   1.410       .  A
C3217      C3222   1.422   1_565  A
C3217      H3224   1.082       .  S
C3218      C3219   1.435       .  A
C3219      C3220   1.404   1_565  A
C3219      C3226   1.530       .  S
C3220      C3221   1.403       .  A
C3220      H3225   1.080       .  S
C3221      C3222   1.427       .  A
C3222      C3223   1.518       .  S
C3223      F3227   1.384       .  S
C3223      F3228   1.384       .  S
C3223      F3229   1.383       .  S
C3226      F3230   1.384       .  S
C3226      F3231   1.383       .  S
C3226      F3232   1.385   1_565  S
C3233      C3234   1.411       .  A
C3233      C3238   1.418       .  A
C3233      H3240   1.082       .  S
C3234      C3235   1.424       .  A
C3235      C3236   1.412       .  A
C3235      C3242   1.519       .  S
C3236      C3237   1.410       .  A
C3236      H3241   1.081       .  S
C3237      C3238   1.426       .  A
C3238      C3239   1.520       .  S
C3239      F3243   1.385       .  S
C3239      F3244   1.381       .  S
C3239      F3245   1.382       .  S
C3242      F3246   1.381       .  S
C3242      F3247   1.384       .  S
C3242      F3248   1.385       .  S
C3249      C3250   1.408       .  A
C3249      C3254   1.402       .  A
C3249      H3256   1.084       .  S
C3250      C3251   1.417       .  A
C3251      C3252   1.408       .  A
C3251      C3258   1.518       .  S
C3252      C3253   1.404       .  A
C3252      H3257   1.084       .  S
C3253      C3254   1.411       .  A
C3254      C3255   1.520       .  S
C3255      F3259   1.385       .  S
C3255      F3260   1.384       .  S
C3255      F3261   1.382       .  S
C3258      F3262   1.382       .  S
C3258      F3263   1.382       .  S
C3258      F3264   1.384       .  S
C3265      C3266   1.404       .  A
C3265      H3272   1.083       .  S
C3266      C3267   1.420       .  A
C3267      C3274   1.519       .  S
C3268      C3269   1.401       .  A
C3268      H3273   1.081       .  S
C3269      C3270   1.416       .  A
C3270      C3271   1.517       .  S
C3271      F3275   1.381       .  S
C3271      F3276   1.382       .  S
C3271      F3277   1.385       .  S
C3274      F3278   1.384       .  S
C3274      F3279   1.383       .  S
C3274      F3280   1.385       .  S
C3281      C3282   1.411       .  A
C3281      C3286   1.418   1_565  A
C3281      H3288   1.083       .  S
C3282      C3283   1.419       .  A
C3283      C3284   1.404   1_565  A
C3283      C3290   1.520       .  S
C3284      C3285   1.407       .  A
C3284      H3289   1.082       .  S
C3285      C3286   1.421       .  A
C3286      C3287   1.518       .  S
C3287      F3291   1.385       .  S
C3287      F3292   1.381       .  S
C3287      F3293   1.383       .  S
C3290      F3294   1.382       .  S
C3290      F3295   1.379       .  S
C3290      F3296   1.385       .  S
C3297      C3298   1.405       .  A
C3297      C3302   1.412       .  A
C3297      H3304   1.082       .  S
C3298      C3299   1.430       .  A
C3299      C3300   1.412       .  A
C3299      C3306   1.522       .  S
C3300      C3301   1.402       .  A
C3300      H3305   1.082       .  S
C3301      C3302   1.427       .  A
C3302      C3303   1.522       .  S
C3303      F3307   1.385       .  S
C3303      F3308   1.383       .  S
C3303      F3309   1.383       .  S
C3306      F3310   1.384       .  S
C3306      F3311   1.383       .  S
C3306      F3312   1.385       .  S
C3313      C3314   1.407       .  A
C3313      C3318   1.412       .  A
C3313      H3320   1.083       .  S
C3314      C3315   1.416       .  A
C3315      C3316   1.402       .  A
C3315      C3322   1.520       .  S
C3316      C3317   1.405       .  A
C3316      H3321   1.083       .  S
C3317      C3318   1.417       .  A
C3318      C3319   1.518       .  S
C3319      F3323   1.384       .  S
C3319      F3324   1.384       .  S
C3319      F3325   1.383       .  S
C3322      F3326   1.382       .  S
C3322      F3327   1.383       .  S
C3322      F3328   1.385       .  S
C3329      C3330   1.400       .  A
C3329      C3334   1.405       .  A
C3329      H3336   1.083       .  S
C3330      C3331   1.418       .  A
C3331      C3332   1.405       .  A
C3331      C3338   1.521       .  S
C3332      C3333   1.403       .  A
C3332      H3337   1.083       .  S
C3333      C3334   1.420       .  A
C3334      C3335   1.519       .  S
C3335      F3339   1.382       .  S
C3335      F3340   1.385       .  S
C3335      F3341   1.383       .  S
C3338      F3342   1.380       .  S
C3338      F3343   1.382       .  S
C3338      F3344   1.385       .  S
C3345      C3346   1.405       .  A
C3345      H3352   1.082       .  S
C3346      C3347   1.428       .  A
C3347      C3354   1.517       .  S
C3348      C3349   1.400       .  A
C3348      H3353   1.083       .  S
C3349      C3350   1.421       .  A
C3350      C3351   1.520       .  S
C3351      F3355   1.385       .  S
C3351      F3356   1.383       .  S
C3351      F3357   1.382       .  S
C3354      F3358   1.380       .  S
C3354      F3359   1.383       .  S
C3354      F3360   1.385       .  S
C3361      C3362   1.409       .  A
C3361      C3366   1.407       .  A
C3361      H3368   1.083       .  S
C3362      C3363   1.409       .  A
C3363      C3364   1.412       .  A
C3363      C3370   1.515       .  S
C3364      C3365   1.413       .  A
C3364      H3369   1.083       .  S
C3365      C3366   1.412       .  A
C3366      C3367   1.516       .  S
C3367      F3371   1.385       .  S
C3367      F3372   1.384       .  S
C3367      F3373   1.378       .  S
C3370      F3374   1.383       .  S
C3370      F3375   1.384       .  S
C3370      F3376   1.384       .  S
C3377      C3378   1.404       .  A
C3377      C3382   1.406   1_655  A
C3377      H3384   1.082       .  S
C3378      C3379   1.424       .  A
C3379      C3380   1.419   1_655  A
C3379      C3386   1.518       .  S
C3380      C3381   1.410       .  A
C3380      H3385   1.082       .  S
C3381      C3382   1.432       .  A
C3382      C3383   1.527       .  S
C3383      F3387   1.383       .  S
C3383      F3388   1.382       .  S
C3383      F3389   1.385       .  S
C3386      F3390   1.383       .  S
C3386      F3391   1.382       .  S
C3386      F3392   1.385       .  S
C3393      C3394   1.402       .  A
C3393      C3398   1.409       .  A
C3393      H3400   1.082       .  S
C3394      C3395   1.433       .  A
C3395      C3396   1.413       .  A
C3395      C3402   1.525       .  S
C3396      C3397   1.403       .  A
C3396      H3401   1.082       .  S
C3397      C3398   1.432       .  A
C3398      C3399   1.525       .  S
C3399      F3403   1.385       .  S
C3399      F3404   1.383       .  S
C3399      F3405   1.384       .  S
C3402      F3406   1.379       .  S
C3402      F3407   1.383       .  S
C3402      F3408   1.385       .  S
C3409      C3410   1.405       .  A
C3409      C3414   1.414       .  A
C3409      H3416   1.083       .  S
C3410      C3411   1.425       .  A
C3411      C3412   1.416       .  A
C3411      C3418   1.517       .  S
C3412      C3413   1.403       .  A
C3412      H3417   1.082       .  S
C3413      C3414   1.423       .  A
C3414      C3415   1.519       .  S
C3415      F3419   1.385       .  S
C3415      F3420   1.383       .  S
C3415      F3421   1.381       .  S
C3418      F3422   1.377       .  S
C3418      F3423   1.384       .  S
C3418      F3424   1.385       .  S
C3425      C3426   1.404       .  A
C3425      H3432   1.084       .  S
C3426      C3427   1.419       .  A
C3427      C3434   1.517       .  S
C3428      C3429   1.408       .  A
C3428      H3433   1.083       .  S
C3429      C3430   1.421       .  A
C3430      C3431   1.519       .  S
C3431      F3435   1.385       .  S
C3431      F3436   1.384       .  S
C3431      F3437   1.382       .  S
C3434      F3438   1.377       .  S
C3434      F3439   1.381       .  S
C3434      F3440   1.385       .  S
C3441      C3442   1.409       .  A
C3441      C3446   1.417   1_655  A
C3441      H3448   1.082       .  S
C3442      C3443   1.431       .  A
C3443      C3444   1.402   1_655  A
C3443      C3450   1.527       .  S
C3444      C3445   1.402       .  A
C3444      H3449   1.082       .  S
C3445      C3446   1.421       .  A
C3446      C3447   1.517       .  S
C3447      F3451   1.385       .  S
C3447      F3452   1.383       .  S
C3447      F3453   1.383       .  S
C3450      F3454   1.376       .  S
C3450      F3455   1.383       .  S
C3450      F3456   1.385       .  S
C3457      C3458   1.407       .  A
C3457      C3462   1.401       .  A
C3457      H3464   1.082       .  S
C3458      C3459   1.428       .  A
C3459      C3460   1.406       .  A
C3459      C3466   1.518       .  S
C3460      C3461   1.397       .  A
C3460      H3465   1.083       .  S
C3461      C3462   1.413       .  A
C3462      C3463   1.516       .  S
C3463      F3467   1.384       .  S
C3463      F3468   1.383       .  S
C3463      F3469   1.380       .  S
C3466      F3470   1.378       .  S
C3466      F3471   1.383       .  S
C3466      F3472   1.385       .  S
C3473      C3474   1.408       .  A
C3473      C3478   1.414       .  A
C3473      H3480   1.085       .  S
C3474      C3475   1.418       .  A
C3475      C3476   1.419       .  A
C3475      C3482   1.515       .  S
C3476      C3477   1.410       .  A
C3476      H3481   1.083       .  S
C3477      C3478   1.418       .  A
C3478      C3479   1.516       .  S
C3479      F3483   1.384       .  S
C3479      F3484   1.382       .  S
C3479      F3485   1.384       .  S
C3482      F3486   1.384       .  S
C3482      F3487   1.382       .  S
C3482      F3488   1.384       .  S
C3489      C3490   1.408       .  A
C3489      C3494   1.410       .  A
C3489      H3496   1.079       .  S
C3490      C3491   1.417       .  A
C3491      C3492   1.405       .  A
C3491      C3498   1.518       .  S
C3492      C3493   1.407       .  A
C3492      H3497   1.083       .  S
C3493      C3494   1.417       .  A
C3494      C3495   1.520       .  S
C3495      F3499   1.384       .  S
C3495      F3500   1.381       .  S
C3495      F3501   1.383       .  S
C3498      F3502   1.381       .  S
C3498      F3503   1.384       .  S
C3498      F3504   1.385       .  S
C3505      C3506   1.407       .  A
C3505      C3510   1.404       .  A
C3505      H3512   1.084       .  S
C3506      C3507   1.418       .  A
C3507      C3508   1.408       .  A
C3507      C3514   1.518       .  S
C3508      C3509   1.401       .  A
C3508      H3513   1.078       .  S
C3509      C3510   1.417       .  A
C3510      C3511   1.520       .  S
C3511      F3515   1.385       .  S
C3511      F3516   1.383       .  S
C3511      F3517   1.383       .  S
C3514      F3518   1.382       .  S
C3514      F3519   1.383       .  S
C3514      F3520   1.385       .  S
C3521      C3522   1.410       .  A
C3521      C3526   1.398       .  A
C3521      H3528   1.082       .  S
C3522      C3523   1.415       .  A
C3523      C3524   1.411       .  A
C3524      C3525   1.414       .  A
C3524      H3529   1.082       .  S
C3525      C3526   1.421       .  A
C3526      C3527   1.524       .  S
C3527      F3531   1.385       .  S
C3527      F3532   1.383       .  S
C3527      F3533   1.382       .  S
C3530      F3534   1.385       .  S
C3530      F3535   1.384       .  S
C3530      F3536   1.381       .  S
C3537      C3538   1.414       .  A
C3537      C3542   1.410       .  A
C3537      H3544   1.082       .  S
C3538      C3539   1.417       .  A
C3539      C3540   1.399       .  A
C3539      C3546   1.525       .  S
C3540      C3541   1.413       .  A
C3540      H3545   1.081       .  S
C3541      C3542   1.413       .  A
C3542      C3543   1.517       .  S
C3543      F3547   1.384       .  S
C3543      F3548   1.382       .  S
C3543      F3549   1.384       .  S
C3546      F3550   1.384       .  S
C3546      F3552   1.385       .  S
C3553      C3554   1.408       .  A
C3553      C3558   1.414       .  A
C3553      H3560   1.083       .  S
C3554      C3555   1.421       .  A
C3555      C3556   1.424       .  A
C3555      C3562   1.516       .  S
C3556      C3557   1.411       .  A
C3556      H3561   1.083       .  S
C3557      C3558   1.423       .  A
C3558      C3559   1.518       .  S
C3559      F3563   1.385       .  S
C3559      F3564   1.382       .  S
C3559      F3565   1.380       .  S
C3562      F3566   1.384       .  S
C3562      F3567   1.382       .  S
C3562      F3568   1.384       .  S
C3569      C3570   1.408       .  A
C3569      C3574   1.405       .  A
C3569      H3576   1.083       .  S
C3570      C3571   1.421       .  A
C3571      C3572   1.401       .  A
C3571      C3578   1.518       .  S
C3572      C3573   1.402       .  A
C3572      H3577   1.083       .  S
C3573      C3574   1.415       .  A
C3574      C3575   1.519       .  S
C3575      F3579   1.385       .  S
C3575      F3580   1.382       .  S
C3575      F3581   1.380       .  S
C3578      F3582   1.378       .  S
C3578      F3583   1.382       .  S
C3578      F3584   1.385       .  S
C3585      C3586   1.408       .  A
C3585      C3590   1.412       .  A
C3585      H3592   1.083       .  S
C3586      C3587   1.413       .  A
C3587      C3588   1.413       .  A
C3587      C3594   1.515       .  S
C3588      C3589   1.411       .  A
C3588      H3593   1.083       .  S
C3589      C3590   1.421       .  A
C3590      C3591   1.521       .  S
C3591      F3595   1.385       .  S
C3591      F3596   1.383       .  S
C3591      F3597   1.380       .  S
C3594      F3598   1.384       .  S
C3594      F3599   1.382       .  S
C3594      F3600   1.384       .  S
C3601      C3602   1.401       .  A
C3601      C3606   1.402       .  A
C3601      H3608   1.084       .  S
C3602      C3603   1.417       .  A
C3603      C3604   1.402       .  A
C3603      C3610   1.518       .  S
C3604      C3605   1.401       .  A
C3604      H3609   1.085       .  S
C3605      C3606   1.416       .  A
C3606      C3607   1.517       .  S
C3607      F3611   1.385       .  S
C3607      F3612   1.384       .  S
C3607      F3613   1.383       .  S
C3610      F3614   1.383       .  S
C3610      F3615   1.383       .  S
C3610      F3616   1.384       .  S
C3617      C3618   1.407       .  A
C3617      C3622   1.395       .  A
C3617      H3624   1.082       .  S
C3618      C3619   1.422       .  A
C3619      C3620   1.410       .  A
C3619      C3626   1.521       .  S
C3620      C3621   1.402       .  A
C3620      H3625   1.083       .  S
C3621      C3622   1.411       .  A
C3622      C3623   1.522       .  S
C3623      F3627   1.385       .  S
C3623      F3628   1.380       .  S
C3623      F3629   1.377       .  S
C3626      F3630   1.382       .  S
C3626      F3631   1.383       .  S
C3626      F3632   1.385       .  S
C3633      C3638   1.412       .  A
C3633      H3640   1.082       .  S
C3634      C3635   1.432       .  A
C3635      C3636   1.401       .  A
C3635      C3642   1.527       .  S
C3636      C3637   1.398       .  A
C3636      H3641   1.083       .  S
C3638      C3639   1.519       .  S
C3639      F3643   1.382       .  S
C3639      F3644   1.382       .  S
C3639      F3645   1.385       .  S
C3642      F3646   1.383       .  S
C3642      F3647   1.378       .  S
C3642      F3648   1.385       .  S
C3649      C3650   1.405       .  A
C3649      C3654   1.408       .  A
C3649      H3656   1.083       .  S
C3650      C3651   1.424       .  A
C3651      C3652   1.404       .  A
C3651      C3658   1.523       .  S
C3652      C3653   1.403       .  A
C3652      H3657   1.083       .  S
C3653      C3654   1.420       .  A
C3654      C3655   1.519       .  S
C3655      F3659   1.384       .  S
C3655      F3660   1.378       .  S
C3655      F3661   1.384       .  S
C3658      F3663   1.383   1_556  S
C3658      F3664   1.386   1_556  S
C3665      C3666   1.401       .  A
C3665      C3670   1.408       .  A
C3665      H3672   1.083       .  S
C3666      C3667   1.421       .  A
C3667      C3668   1.412       .  A
C3667      C3674   1.517       .  S
C3668      C3669   1.403       .  A
C3668      H3673   1.083       .  S
C3669      C3670   1.422       .  A
C3670      C3671   1.515       .  S
C3671      F3675   1.385       .  S
C3671      F3676   1.372       .  S
C3671      F3677   1.383       .  S
C3674      F3678   1.383       .  S
C3681      C3682   1.398       .  A
C3681      C3686   1.398       .  A
C3681      H3688   1.084       .  S
C3682      C3683   1.415       .  A
C3683      C3684   1.400       .  A
C3683      C3690   1.517       .  S
C3684      C3685   1.402       .  A
C3684      H3689   1.084       .  S
C3685      C3686   1.419       .  A
C3686      C3687   1.518       .  S
C3687      F3691   1.385       .  S
C3687      F3692   1.383       .  S
C3687      F3693   1.382       .  S
C3690      F3694   1.384       .  S
C3690      F3695   1.381       .  S
C3690      F3696   1.382       .  S
C3697      C3698   1.404       .  A
C3697      C3702   1.415       .  A
C3697      H3704   1.082       .  S
C3698      C3699   1.428       .  A
C3699      C3700   1.407       .  A
C3699      C3706   1.524       .  S
C3700      C3701   1.406       .  A
C3700      H3705   1.082       .  S
C3701      C3702   1.432       .  A
C3702      C3703   1.523       .  S
C3703      F3707   1.385       .  S
C3703      F3708   1.383       .  S
C3703      F3709   1.383       .  S
C3706      F3710   1.383       .  S
C3706      F3711   1.385       .  S
C3706      F3712   1.382       .  S
C3713      C3714   1.404       .  A
C3713      C3718   1.409       .  A
C3713      H3720   1.083       .  S
C3714      C3715   1.423       .  A
C3715      C3716   1.418       .  A
C3715      C3722   1.518       .  S
C3716      C3717   1.407       .  A
C3716      H3721   1.082       .  S
C3717      C3718   1.425       .  A
C3718      C3719   1.519       .  S
C3719      F3723   1.385       .  S
C3719      F3724   1.378       .  S
C3719      F3725   1.383       .  S
C3722      F3726   1.384       .  S
C3722      F3727   1.381       .  S
C3722      F3728   1.384       .  S
C3729      C3730   1.403       .  A
C3729      C3734   1.406       .  A
C3729      H3736   1.085       .  S
C3730      C3731   1.418       .  A
C3731      C3732   1.417       .  A
C3731      C3738   1.516       .  S
C3732      C3733   1.409       .  A
C3732      H3737   1.083       .  S
C3733      C3734   1.419       .  A
C3734      C3735   1.515       .  S
C3735      F3739   1.384       .  S
C3735      F3740   1.380       .  S
C3735      F3741   1.383       .  S
C3738      F3742   1.382       .  S
C3738      F3743   1.383       .  S
C3738      F3744   1.384       .  S
C3745      C3746   1.408       .  A
C3745      C3750   1.412       .  A
C3745      H3752   1.083       .  S
C3746      C3747   1.415       .  A
C3747      C3748   1.414       .  A
C3747      C3754   1.516       .  S
C3748      C3749   1.409       .  A
C3748      H3753   1.082       .  S
C3749      C3750   1.415       .  A
C3750      C3751   1.512       .  S
C3751      F3755   1.374       .  S
C3751      F3756   1.383       .  S
C3751      F3757   1.385       .  S
C3754      F3758   1.376       .  S
C3754      F3759   1.383       .  S
C3754      F3760   1.384       .  S
C3761      C3762   1.403       .  A
C3761      C3766   1.404       .  A
C3761      H3768   1.083       .  S
C3762      C3763   1.431       .  A
C3763      C3764   1.410       .  A
C3763      C3770   1.524       .  S
C3764      C3765   1.402       .  A
C3764      H3769   1.082       .  S
C3765      C3766   1.428       .  A
C3766      C3767   1.522       .  S
C3767      F3771   1.385   1_556  S
C3767      F3772   1.383       .  S
C3767      F3773   1.381       .  S
C3770      F3775   1.382       .  S
C3770      F3776   1.385       .  S
C3777      C3778   1.408       .  A
C3777      C3782   1.413       .  A
C3777      H3784   1.082       .  S
C3778      C3779   1.428       .  A
C3779      C3780   1.416       .  A
C3779      C3786   1.516       .  S
C3780      C3781   1.405       .  A
C3780      H3785   1.082       .  S
C3781      C3782   1.424       .  A
C3782      C3783   1.521       .  S
C3783      F3787   1.385       .  S
C3783      F3788   1.383       .  S
C3783      F3789   1.382       .  S
C3786      F3790   1.382       .  S
C3786      F3791   1.374       .  S
C3786      F3792   1.385       .  S
C3793      C3794   1.411       .  A
C3793      C3798   1.425       .  A
C3793      H3800   1.082       .  S
C3794      C3795   1.419       .  A
C3795      C3796   1.408       .  A
C3795      C3802   1.521       .  S
C3796      C3797   1.410       .  A
C3796      H3801   1.082       .  S
C3797      C3798   1.425       .  A
C3798      C3799   1.517       .  S
C3799      F3803   1.385       .  S
C3799      F3804   1.384       .  S
C3799      F3805   1.382       .  S
C3802      F3806   1.383       .  S
C3802      F3807   1.383       .  S
C3802      F3808   1.385       .  S
C3809      C3810   1.401       .  A
C3809      C3814   1.409       .  A
C3809      H3816   1.084       .  S
C3810      C3811   1.415       .  A
C3811      C3812   1.402       .  A
C3811      C3818   1.516       .  S
C3812      C3813   1.404       .  A
C3812      H3817   1.083       .  S
C3813      C3814   1.426       .  A
C3814      C3815   1.520       .  S
C3815      F3819   1.385       .  S
C3815      F3820   1.382       .  S
C3815      F3821   1.382       .  S
C3818      F3822   1.384       .  S
C3818      F3823   1.382       .  S
C3818      F3824   1.383       .  S
C3825      C3826   1.406       .  A
C3825      C3830   1.411       .  A
C3825      H3832   1.084       .  S
C3826      C3827   1.416       .  A
C3827      C3828   1.421       .  A
C3827      C3834   1.516       .  S
C3828      C3829   1.411       .  A
C3828      H3833   1.083       .  S
C3829      C3830   1.419       .  A
C3830      C3831   1.516       .  S
C3831      F3835   1.384       .  S
C3831      F3836   1.385       .  S
C3831      F3837   1.382       .  S
C3834      F3838   1.383       .  S
C3834      F3839   1.379       .  S
C3834      F3840   1.384       .  S
C3841      C3842   1.405   1_556  A
C3841      C3846   1.405       .  A
C3841      H3848   1.084       .  S
C3843      C3844   1.404       .  A
C3843      C3850   1.518       .  S
C3844      H3849   1.084       .  S
C3845      C3846   1.411   1_554  A
C3846      C3847   1.515       .  S
C3847      F3851   1.385       .  S
C3847      F3853   1.382       .  S
C3850      F3854   1.382       .  S
C3857      C3858   1.404       .  A
C3857      C3862   1.408       .  A
C3857      H3864   1.083       .  S
C3858      C3859   1.425       .  A
C3859      C3860   1.414       .  A
C3859      C3866   1.517       .  S
C3860      C3861   1.401       .  A
C3860      H3865   1.082       .  S
C3861      C3862   1.418       .  A
C3862      C3863   1.518       .  S
C3863      F3867   1.385       .  S
C3863      F3868   1.382       .  S
C3863      F3869   1.381       .  S
C3866      F3870   1.383       .  S
C3866      F3871   1.381       .  S
C3866      F3872   1.384       .  S
C3873      C3874   1.405       .  A
C3873      C3878   1.407       .  A
C3873      H3880   1.082       .  S
C3874      C3875   1.419       .  A
C3875      C3876   1.402       .  A
C3875      C3882   1.523       .  S
C3876      C3877   1.408       .  A
C3876      H3881   1.083       .  S
C3877      C3878   1.418       .  A
C3878      C3879   1.511       .  S
C3879      F3883   1.385       .  S
C3879      F3884   1.383       .  S
C3879      F3885   1.381       .  S
C3882      F3886   1.383       .  S
C3882      F3887   1.382       .  S
C3882      F3888   1.385       .  S
C3889      C3890   1.410   1_556  A
C3889      C3894   1.408       .  A
C3889      H3896   1.082       .  S
C3891      C3892   1.398       .  A
C3891      C3898   1.528       .  S
C3892      H3897   1.083       .  S
C3893      C3894   1.415   1_554  A
C3894      C3895   1.518       .  S
C3895      F3899   1.385       .  S
C3895      F3900   1.383       .  S
C3895      F3901   1.383       .  S
C3898      F3902   1.384       .  S
C3898      F3903   1.382       .  S
C3898      F3904   1.385       .  S
C3905      C3906   1.400       .  A
C3905      C3910   1.408       .  A
C3905      H3912   1.082       .  S
C3906      C3907   1.422       .  A
C3907      C3908   1.400       .  A
C3907      C3914   1.520       .  S
C3908      C3909   1.405       .  A
C3908      H3913   1.083       .  S
C3909      C3910   1.432       .  A
C3910      C3911   1.523       .  S
C3911      F3916   1.383       .  S
C3911      F3917   1.382       .  S
C3914      F3918   1.382       .  S
C3914      F3919   1.383       .  S
C3914      F3920   1.384       .  S
C3921      C3922   1.418       .  A
C3921      C3926   1.415       .  A
C3921      H3928   1.082       .  S
C3922      C3923   1.419       .  A
C3923      C3924   1.405       .  A
C3924      C3925   1.416       .  A
C3924      H3929   1.081       .  S
C3925      C3926   1.415       .  A
C3926      C3927   1.518       .  S
C3927      F3931   1.382       .  S
C3927      F3932   1.384       .  S
C3927      F3933   1.384       .  S
C3930      F3934   1.385       .  S
C3930      F3935   1.384       .  S
C3930      F3936   1.382   1_554  S
C3937      C3938   1.406       .  A
C3937      C3942   1.399       .  A
C3937      H3944   1.083       .  S
C3938      C3939   1.423       .  A
C3939      C3940   1.407       .  A
C3939      C3946   1.519       .  S
C3940      C3941   1.402       .  A
C3940      H3945   1.083       .  S
C3941      C3942   1.413       .  A
C3942      C3943   1.520       .  S
C3943      F3947   1.385       .  S
C3943      F3948   1.384       .  S
C3943      F3949   1.380       .  S
C3946      F3950   1.382       .  S
C3946      F3951   1.382       .  S
C3946      F3952   1.385       .  S
C3953      C3954   1.405       .  A
C3953      C3958   1.408       .  A
C3953      H3960   1.085       .  S
C3954      C3955   1.415       .  A
C3955      C3956   1.417       .  A
C3955      C3962   1.516       .  S
C3956      C3957   1.411       .  A
C3956      H3961   1.083       .  S
C3957      C3958   1.416       .  A
C3958      C3959   1.514       .  S
C3959      F3963   1.384       .  S
C3959      F3964   1.384       .  S
C3959      F3965   1.381       .  S
C3962      F3966   1.384       .  S
C3962      F3967   1.383       .  S
C3962      F3968   1.381       .  S
C3969      C3970   1.406       .  A
C3969      C3974   1.410       .  A
C3969      H3976   1.082       .  S
C3970      C3971   1.427       .  A
C3971      C3972   1.418       .  A
C3971      C3978   1.520       .  S
C3972      C3973   1.408       .  A
C3972      H3977   1.082       .  S
C3973      C3974   1.429       .  A
C3974      C3975   1.524       .  S
C3975      F3979   1.385       .  S
C3975      F3980   1.382       .  S
C3975      F3981   1.383       .  S
C3978      F3982   1.383       .  S
C3978      F3983   1.383       .  S
C3978      F3984   1.385       .  S
C3985      C3986   1.409       .  A
C3985      C3990   1.403       .  A
C3985      H3992   1.083       .  S
C3986      C3987   1.413       .  A
C3987      C3988   1.411       .  A
C3987      C3994   1.517       .  S
C3988      C3989   1.415       .  A
C3988      H3993   1.082       .  S
C3989      C3990   1.423       .  A
C3990      C3991   1.524       .  S
C3991      F3995   1.386       .  S
C3991      F3996   1.381       .  S
C3991      F3997   1.380       .  S
C3994      F3998   1.383       .  S
C3994      F3999   1.378       .  S
C3994      F4000   1.384       .  S
C4001      C4002   1.414       .  A
C4001      C4006   1.409       .  A
C4001      H4008   1.084       .  S
C4002      C4003   1.421       .  A
C4003      C4004   1.401       .  A
C4004      C4005   1.411       .  A
C4004      H4009   1.084       .  S
C4005      C4006   1.417       .  A
C4006      C4007   1.520       .  S
C4007      F4011   1.381       .  S
C4007      F4012   1.383       .  S
C4007      F4013   1.385       .  S
C4010      F4014   1.382       .  S
C4010      F4015   1.381       .  S
C4010      F4016   1.385       .  S
C4017      C4018   1.407   1_554  A
C4017      C4022   1.405       .  A
C4018      C4019   1.423       .  A
C4019      C4020   1.406       .  A
C4019      C4026   1.520       .  S
C4020      C4021   1.405   1_556  A
C4020      H4025   1.083       .  S
C4021      C4022   1.418       .  A
C4023      F4027   1.385       .  S
C4023      F4028   1.384       .  S
C4026      F4031   1.381       .  S
C4026      F4032   1.385       .  S
C4033      C4034   1.403       .  A
C4033      C4038   1.406       .  A
C4033      H4040   1.084       .  S
C4034      C4035   1.422       .  A
C4035      C4036   1.409       .  A
C4035      C4042   1.519       .  S
C4036      C4037   1.401       .  A
C4036      H4041   1.083       .  S
C4037      C4038   1.419       .  A
C4038      C4039   1.518       .  S
C4039      F4043   1.385       .  S
C4039      F4044   1.384       .  S
C4039      F4045   1.383       .  S
C4042      F4046   1.383       .  S
C4042      F4047   1.383       .  S
C4042      F4048   1.385       .  S
C4049      C4050   1.408       .  A
C4049      C4054   1.414       .  A
C4049      H4056   1.083       .  S
C4050      C4051   1.418       .  A
C4051      C4052   1.406       .  A
C4051      C4058   1.519       .  S
C4052      C4053   1.404       .  A
C4052      H4057   1.084       .  S
C4053      C4054   1.417       .  A
C4054      C4055   1.518       .  S
C4055      F4059   1.384       .  S
C4055      F4060   1.384       .  S
C4055      F4061   1.383       .  S
C4058      F4062   1.383       .  S
C4058      F4063   1.384       .  S
C4058      F4064   1.385       .  S
C4065      C4066   1.402       .  A
C4065      C4070   1.407       .  A
C4065      H4072   1.084       .  S
C4066      C4067   1.408       .  A
C4067      C4068   1.396       .  A
C4067      C4074   1.516       .  S
C4068      C4069   1.406       .  A
C4068      H4073   1.082       .  S
C4069      C4070   1.418       .  A
C4070      C4071   1.515       .  S
C4071      F4075   1.385       .  S
C4071      F4076   1.374       .  S
C4071      F4077   1.383       .  S
C4074      F4078   1.374       .  S
C4074      F4079   1.381       .  S
C4074      F4080   1.385       .  S
C4081      C4082   1.406       .  A
C4081      C4086   1.418       .  A
C4081      H4088   1.084       .  S
C4082      C4083   1.413       .  A
C4083      C4084   1.419       .  A
C4083      C4090   1.511       .  S
C4084      C4085   1.410       .  A
C4084      H4089   1.083       .  S
C4085      C4086   1.422       .  A
C4086      C4087   1.517       .  S
C4087      F4091   1.385       .  S
C4087      F4092   1.383       .  S
C4087      F4093   1.382       .  S
C4090      F4094   1.383       .  S
C4090      F4095   1.376       .  S
C4090      F4096   1.384       .  S
C4097      C4098   1.411       .  A
C4097      C4102   1.421       .  A
C4097      H4104   1.082       .  S
C4098      C4099   1.429       .  A
C4099      C4100   1.405       .  A
C4099      C4106   1.528       .  S
C4100      C4101   1.408       .  A
C4100      H4105   1.080       .  S
C4101      C4102   1.424       .  A
C4102      C4103   1.517       .  S
C4103      F4107   1.385       .  S
C4103      F4108   1.384       .  S
C4103      F4109   1.383       .  S
C4106      F4110   1.382       .  S
C4106      F4111   1.381       .  S
C4106      F4112   1.385       .  S
C4113      C4114   1.403       .  A
C4113      C4118   1.411       .  A
C4113      H4120   1.082       .  S
C4114      C4115   1.424       .  A
C4115      C4116   1.400       .  A
C4115      C4122   1.521       .  S
C4116      C4117   1.404       .  A
C4116      H4121   1.082       .  S
C4117      C4118   1.431       .  A
C4118      C4119   1.523       .  S
C4119      F4123   1.385       .  S
C4119      F4124   1.383       .  S
C4119      F4125   1.383       .  S
C4122      F4126   1.382       .  S
C4122      F4127   1.382       .  S
C4122      F4128   1.385       .  S
C4129      C4130   1.416       .  A
C4129      C4134   1.411       .  A
C4129      H4136   1.082       .  S
C4130      C4131   1.420       .  A
C4131      C4132   1.403       .  A
C4131      C4138   1.525       .  S
C4132      C4133   1.412       .  A
C4132      H4137   1.082       .  S
C4133      C4134   1.417       .  A
C4134      C4135   1.519       .  S
C4135      F4139   1.385       .  S
C4135      F4140   1.383       .  S
C4135      F4141   1.383       .  S
C4138      F4142   1.384       .  S
C4145      C4146   1.406       .  A
C4145      C4150   1.409       .  A
C4145      H4152   1.083       .  S
C4146      C4147   1.422       .  A
C4147      C4148   1.407       .  A
C4147      C4154   1.521       .  S
C4148      C4149   1.399       .  A
C4148      H4153   1.084       .  S
C4149      C4150   1.412       .  A
C4150      C4151   1.516       .  S
C4151      F4155   1.384       .  S
C4151      F4156   1.381       .  S
C4151      F4157   1.380       .  S
C4154      F4158   1.381       .  S
C4154      F4159   1.382       .  S
C4154      F4160   1.385       .  S
C4161      C4162   1.404       .  A
C4161      C4166   1.406       .  A
C4161      H4168   1.083       .  S
C4162      C4163   1.426       .  A
C4163      C4164   1.411       .  A
C4163      C4170   1.521       .  S
C4164      C4165   1.399       .  A
C4164      H4169   1.083       .  S
C4165      C4166   1.413       .  A
C4166      C4167   1.518       .  S
C4167      F4171   1.384       .  S
C4167      F4172   1.383       .  S
C4167      F4173   1.382       .  S
C4170      F4174   1.383       .  S
C4170      F4175   1.383       .  S
C4170      F4176   1.385       .  S
C4177      C4178   1.404   1_554  A
C4177      C4182   1.396       .  A
C4177      H4184   1.084       .  S
C4179      C4180   1.409       .  A
C4179      C4186   1.518       .  S
C4180      H4185   1.082       .  S
C4181      C4182   1.408   1_556  A
C4182      C4183   1.512       .  S
C4183      F4187   1.385       .  S
C4183      F4188   1.380       .  S
C4183      F4189   1.381       .  S
C4186      F4190   1.382       .  S
C4186      F4191   1.382       .  S
C4186      F4192   1.385       .  S
C4193      C4194   1.406       .  A
C4193      C4198   1.402       .  A
C4193      H4200   1.083       .  S
C4194      C4195   1.429       .  A
C4195      C4196   1.411       .  A
C4195      C4202   1.522       .  S
C4196      C4197   1.403       .  A
C4196      H4201   1.082       .  S
C4197      C4198   1.423       .  A
C4198      C4199   1.522       .  S
C4199      F4203   1.385       .  S
C4199      F4204   1.382       .  S
C4199      F4205   1.383       .  S
C4202      F4206   1.382       .  S
C4202      F4207   1.383       .  S
C4202      F4208   1.385       .  S
C4209      C4210   1.412       .  A
C4209      C4214   1.418       .  A
C4209      H4216   1.083       .  S
C4210      C4211   1.415       .  A
C4211      C4212   1.408       .  A
C4211      C4218   1.515       .  S
C4212      C4213   1.406       .  A
C4212      H4217   1.082       .  S
C4213      C4214   1.414       .  A
C4214      C4215   1.515       .  S
C4215      F4219   1.383       .  S
C4215      F4220   1.378       .  S
C4215      F4221   1.385       .  S
C4218      F4222   1.383       .  S
C4218      F4223   1.383       .  S
C4218      F4224   1.382       .  S
C4225      C4226   1.404       .  A
C4225      C4230   1.411       .  A
C4225      H4232   1.083       .  S
C4226      C4227   1.419       .  A
C4227      C4228   1.412       .  A
C4227      C4234   1.516       .  S
C4228      C4229   1.403       .  A
C4228      H4233   1.081       .  S
C4229      C4230   1.421       .  A
C4230      C4231   1.518       .  S
C4231      F4235   1.385       .  S
C4231      F4236   1.383       .  S
C4231      F4237   1.382       .  S
C4234      F4238   1.382       .  S
C4234      F4239   1.382       .  S
C4234      F4240   1.384       .  S
C4241      C4242   1.415       .  A
C4241      C4246   1.413       .  A
C4241      H4248   1.082       .  S
C4242      C4243   1.419       .  A
C4243      C4244   1.400       .  A
C4243      C4250   1.523       .  S
C4244      C4245   1.412       .  A
C4244      H4249   1.080       .  S
C4245      C4246   1.417       .  A
C4246      C4247   1.517       .  S
C4247      F4252   1.384       .  S
C4250      F4254   1.383       .  S
C4250      F4255   1.379       .  S
C4250      F4256   1.385       .  S
C4257      C4258   1.402       .  A
C4257      C4262   1.400       .  A
C4257      H4264   1.084       .  S
C4258      C4259   1.417       .  A
C4259      C4260   1.401       .  A
C4259      C4266   1.520       .  S
C4260      C4261   1.403       .  A
C4260      H4265   1.084       .  S
C4261      C4262   1.419       .  A
C4262      C4263   1.521       .  S
C4263      F4268   1.382       .  S
C4263      F4269   1.381       .  S
C4266      F4270   1.383       .  S
C4266      F4271   1.382       .  S
C4266      F4272   1.384       .  S
C4273      C4274   1.400       .  A
C4273      C4278   1.415       .  A
C4273      H4280   1.082   1_554  S
C4275      C4276   1.408       .  A
C4275      C4282   1.525       .  S
C4276      H4281   1.082       .  S
C4277      C4278   1.437       .  A
C4278      C4279   1.524   1_554  S
C4279      F4283   1.384   1_556  S
C4279      F4284   1.385       .  S
C4282      F4287   1.383       .  S
C4282      F4288   1.385       .  S
C4289      C4290   1.403       .  A
C4289      C4294   1.406       .  A
C4289      H4296   1.084       .  S
C4290      C4291   1.423       .  A
C4291      C4292   1.414       .  A
C4291      C4298   1.514       .  S
C4292      C4293   1.402       .  A
C4292      H4297   1.083       .  S
C4293      C4294   1.419       .  A
C4294      C4295   1.515       .  S
C4295      F4299   1.385       .  S
C4295      F4300   1.383       .  S
C4295      F4301   1.382       .  S
C4298      F4302   1.381       .  S
C4298      F4303   1.381       .  S
C4298      F4304   1.385       .  S
C4305      C4306   1.409       .  A
C4305      C4310   1.408       .  A
C4305      H4312   1.082       .  S
C4306      C4307   1.422       .  A
C4307      C4308   1.417       .  A
C4307      C4314   1.519       .  S
C4308      C4309   1.410       .  A
C4308      H4313   1.078       .  S
C4309      C4310   1.425       .  A
C4310      C4311   1.523       .  S
C4311      F4315   1.385       .  S
C4311      F4316   1.384       .  S
C4311      F4317   1.382       .  S
C4314      F4318   1.383       .  S
C4314      F4319   1.382       .  S
C4314      F4320   1.385       .  S
C4321      C4322   1.401       .  A
C4321      C4326   1.396       .  A
C4321      H4328   1.083       .  S
C4322      C4323   1.411       .  A
C4323      C4324   1.397       .  A
C4323      C4330   1.518       .  S
C4324      C4325   1.406       .  A
C4324      H4329   1.083       .  S
C4325      C4326   1.421       .  A
C4326      C4327   1.521       .  S
C4327      F4331   1.385       .  S
C4327      F4332   1.378       .  S
C4327      F4333   1.383       .  S
C4330      F4334   1.383       .  S
C4330      F4335   1.380       .  S
C4330      F4336   1.384       .  S
C4337      C4338   1.391       .  A
C4337      C4342   1.406       .  A
C4337      H4344   1.086       .  S
C4338      C4339   1.423       .  A
C4339      C4340   1.421       .  A
C4339      C4346   1.514       .  S
C4340      C4341   1.410       .  A
C4340      H4345   1.083       .  S
C4341      C4342   1.424       .  A
C4342      C4343   1.498       .  S
C4343      F4347   1.384       .  S
C4343      F4348   1.375       .  S
C4343      F4349   1.376       .  S
C4346      F4350   1.373       .  S
C4346      F4351   1.383       .  S
C4346      F4352   1.384       .  S
C4353      C4354   1.409       .  A
C4353      C4358   1.406       .  A
C4353      H4360   1.082       .  S
C4354      C4355   1.428       .  A
C4355      C4356   1.419       .  A
C4355      C4362   1.519       .  S
C4356      C4357   1.404       .  A
C4356      H4361   1.083       .  S
C4357      C4358   1.415       .  A
C4358      C4359   1.516       .  S
C4359      F4363   1.385       .  S
C4359      F4364   1.383       .  S
C4359      F4365   1.381       .  S
C4362      F4366   1.383       .  S
C4362      F4367   1.383       .  S
C4362      F4368   1.385       .  S
C4369      C4370   1.406       .  A
C4369      C4374   1.402       .  A
C4369      H4376   1.081       .  S
C4370      C4371   1.423       .  A
C4371      C4372   1.419       .  A
C4371      C4378   1.518       .  S
C4372      C4373   1.409       .  A
C4372      H4377   1.082       .  S
C4373      C4374   1.422       .  A
C4374      C4375   1.523       .  S
C4375      F4379   1.385       .  S
C4375      F4380   1.383       .  S
C4375      F4381   1.382       .  S
C4378      F4382   1.384       .  S
C4378      F4383   1.383       .  S
C4378      F4384   1.385       .  S
C4385      C4386   1.409       .  A
C4385      C4390   1.411       .  A
C4385      H4392   1.082       .  S
C4386      C4387   1.420       .  A
C4387      C4388   1.401       .  A
C4387      C4394   1.530       .  S
C4388      C4389   1.400       .  A
C4388      H4393   1.079       .  S
C4389      C4390   1.410       .  A
C4390      C4391   1.515       .  S
C4391      F4395   1.381       .  S
C4391      F4396   1.385       .  S
C4391      F4397   1.384       .  S
C4394      F4398   1.383       .  S
C4394      F4399   1.375       .  S
C4394      F4400   1.384       .  S
C4401      C4402   1.412       .  A
C4401      C4406   1.416       .  A
C4401      H4408   1.085       .  S
C4402      C4403   1.413       .  A
C4403      C4404   1.398       .  A
C4403      C4410   1.518       .  S
C4404      C4405   1.402       .  A
C4404      H4409   1.086       .  S
C4405      C4406   1.416       .  A
C4406      C4407   1.516       .  S
C4407      F4411   1.385       .  S
C4407      F4412   1.383       .  S
C4407      F4413   1.381       .  S
C4410      F4414   1.384       .  S
C4410      F4415   1.383       .  S
C4410      F4416   1.384   1_556  S
C4417      C4422   1.406       .  A
C4417      H4424   1.083       .  S
C4418      C4419   1.424       .  A
C4419      C4420   1.409   1_554  A
C4419      C4426   1.522   1_554  S
C4420      C4421   1.408   1_556  A
C4420      H4425   1.082       .  S
C4422      C4423   1.521       .  S
C4423      F4427   1.385       .  S
C4423      F4428   1.384       .  S
C4426      F4431   1.382       .  S
C4426      F4432   1.385       .  S
C4433      C4434   1.405       .  A
C4433      C4438   1.412       .  A
C4433      H4440   1.083       .  S
C4434      C4435   1.417       .  A
C4435      C4436   1.401       .  A
C4435      C4442   1.518       .  S
C4436      C4437   1.401       .  A
C4436      H4441   1.082       .  S
C4437      C4438   1.418       .  A
C4438      C4439   1.517       .  S
C4439      F4443   1.385       .  S
C4439      F4444   1.384       .  S
C4439      F4445   1.382       .  S
C4442      F4446   1.382       .  S
C4442      F4447   1.382       .  S
C4442      F4448   1.385       .  S
C4449      C4450   1.402       .  A
C4449      C4454   1.408       .  A
C4449      H4456   1.084       .  S
C4450      C4451   1.413       .  A
C4451      C4452   1.402       .  A
C4451      C4458   1.520       .  S
C4452      C4453   1.408       .  A
C4452      H4457   1.083       .  S
C4453      C4454   1.420       .  A
C4454      C4455   1.518       .  S
C4455      F4459   1.385       .  S
C4455      F4460   1.384       .  S
C4455      F4461   1.382       .  S
C4458      F4462   1.383       .  S
C4458      F4463   1.382       .  S
C4458      F4464   1.385       .  S
C4465      C4466   1.404       .  A
C4465      C4470   1.409       .  A
C4465      H4472   1.080       .  S
C4467      C4468   1.413       .  A
C4467      C4474   1.519       .  S
C4468      H4473   1.083       .  S
C4469      C4470   1.422       .  A
C4470      C4471   1.519       .  S
C4471      F4475   1.385       .  S
C4471      F4476   1.382       .  S
C4471      F4477   1.381       .  S
C4474      F4478   1.383       .  S
C4474      F4479   1.383       .  S
C4474      F4480   1.384       .  S
