geometry optimzed in LAMMPS
_audit_creation_date              2020-12-01 
_audit_creation_method            'lammps2cif' 
_symmetry_space_group_name_H-M    'P1' 
_symmetry_Int_Tables_number       1 
_symmetry_cell_setting            triclinic 
loop_ 
_symmetry_equiv_pos_as_xyz 
  x,y,z 
_cell_length_a                    46.63956433 
_cell_length_b                    46.661022801470445 
_cell_length_c                    46.95394991386508 
_cell_angle_alpha                 89.99410240022208 
_cell_angle_beta                  89.99882638340492 
_cell_angle_gamma                 120.2971348506451 
loop_ 
_atom_site_label 
_atom_site_type_symbol 
_atom_site_fract_x 
_atom_site_fract_y 
_atom_site_fract_z 
_atom_site_charge 
O1          O  0.38380609  0.12405676  0.15559832    -0.80100
C2          C  0.45056646  0.12027638  0.05678169     0.99300
O3          O  0.45633351  0.11460942  0.08179907    -0.69200
O4          O  0.47135328  0.15995723  0.12099946    -0.72800
Al5        Al  0.43786698  0.11445201  0.11821345     1.49000
C6          C  0.46794558  0.17866323  0.13823539     0.94500
O7          O  0.41450003  0.18141244  0.09277093    -0.79000
O8          O  0.34228375  0.08619782  0.09381554    -0.72600
Al9        Al  0.39913810  0.15174419  0.12345650     1.90100
O10         O  0.38455482  0.14355748  0.06036740    -0.71600
O11         O  0.37883024  0.06019188  0.08059000    -0.71500
O12         O  0.42326935  0.11835301  0.05050580    -0.77100
O13         O  0.40904671  0.06812062  0.11858644    -0.75300
O14         O  0.40736091  0.12314985  0.10490219    -1.11500
O15         O  0.42500158  0.11329188  0.15693040    -0.70700
C16         C  0.40176960  0.11535071  0.16880098     1.00100
C17         C  0.40104195  0.17367158  0.06857906     0.96400
Al18       Al  0.38410938  0.10359916  0.07358585     1.55600
O19         O  0.44058386  0.17700871  0.14114516    -0.75300
C20         C  0.38704328  0.04887626  0.10154016     1.00600
C21         C  0.33387041  0.10381762  0.10787746     0.95500
O22         O  0.35440918  0.13390719  0.11188576    -0.80600
O23         O  0.27063741  0.39482417  0.35037754    -0.80100
C24         C  0.34123256  0.39948182  0.44937606     0.99300
O25         O  0.35316668  0.40617708  0.42451156    -0.69200
O26         O  0.32324052  0.36062085  0.38530308    -0.72800
Al27       Al  0.33469522  0.40583478  0.38800688     1.49000
C28         C  0.30091852  0.34144481  0.36829698     0.94500
O29         O  0.24386844  0.33771078  0.41337604    -0.79000
O30         O  0.26672731  0.43262338  0.41228360    -0.72600
Al31       Al  0.25830446  0.36733643  0.38265740     1.90100
O32         O  0.25129725  0.37533458  0.44566517    -0.71600
O33         O  0.32951939  0.45913795  0.42601834    -0.71500
O34         O  0.31545894  0.40066452  0.45566167    -0.77100
O35         O  0.35155479  0.45196367  0.38754933    -0.75300
O36         O  0.29512654  0.39630221  0.40126925    -1.11500
O37         O  0.32299880  0.40662724  0.34916936    -0.70700
C38         C  0.29750478  0.40404538  0.33721163     1.00100
C39         C  0.23780950  0.34525968  0.43746956     0.96400
Al40       Al  0.29113605  0.41546186  0.43264860     1.55600
O41         O  0.27491991  0.34252964  0.36538603    -0.75300
C42         C  0.34872796  0.47085523  0.40482290     1.00600
C43         C  0.24075580  0.41486819  0.39796029     0.95500
O44         O  0.23119471  0.38482614  0.39394848    -0.80600
O45         O  0.38627173  0.27896887  0.32191977    -0.80100
C46         C  0.39086091  0.34959068  0.22294940     0.99300
O47         O  0.39739331  0.36143682  0.24784216    -0.69200
O48         O  0.35189937  0.33146058  0.28708536    -0.72800
Al49       Al  0.39714852  0.34299649  0.28433031     1.49000
C50         C  0.33280625  0.30919006  0.30416344     0.94500
O51         O  0.32904480  0.25222838  0.25897922    -0.79000
O52         O  0.42398845  0.27506922  0.25997067    -0.72600
Al53       Al  0.35871646  0.26664063  0.28967466     1.90100
O54         O  0.36667721  0.25974167  0.22663173    -0.71600
O55         O  0.45056660  0.33784081  0.24636431    -0.71500
O56         O  0.39213951  0.32388702  0.21665869    -0.77100
O57         O  0.44331059  0.35996177  0.28473279    -0.75300
O58         O  0.38767199  0.30346948  0.27105652    -1.11500
O59         O  0.39803245  0.33129624  0.32316037    -0.70700
C60         C  0.39549823  0.30581847  0.33509689     1.00100
C61         C  0.33659028  0.24622680  0.23485614     0.96400
Al62       Al  0.40685882  0.29951662  0.23966824     1.55600
O63         O  0.33390577  0.28320870  0.30704554    -0.75300
C64         C  0.46224576  0.35711259  0.26751702     1.00600
C65         C  0.40622600  0.24908485  0.27425783     0.95500
O66         O  0.37618208  0.23954056  0.27831608    -0.80600
O67         O  0.11757571  0.39417497  0.40530573    -0.80100
C68         C  0.05086784  0.39849981  0.30670840     0.99300
O69         O  0.04519259  0.40424556  0.33173472    -0.69200
O70         O  0.03008081  0.35878563  0.37084792    -0.72800
Al71       Al  0.06367588  0.40425005  0.36811546     1.49000
C72         C  0.03343132  0.33996754  0.38799527     0.94500
O73         O  0.08676590  0.33720263  0.34225194    -0.79000
O74         O  0.15914184  0.43239539  0.34362879    -0.72600
Al75       Al  0.10218828  0.36669732  0.37306070     1.90100
O76         O  0.11691506  0.37522124  0.31003320    -0.71600
O77         O  0.12263346  0.45850490  0.33045470    -0.71500
O78         O  0.07813943  0.40039566  0.30036598    -0.77100
O79         O  0.09260825  0.45057608  0.36857329    -0.75300
O80         O  0.09407408  0.39546720  0.35468110    -1.11500
O81         O  0.07658415  0.40523531  0.40679399    -0.70700
C82         C  0.09973469  0.40296826  0.41859015     1.00100
C83         C  0.10037651  0.34506777  0.31812325     0.96400
Al84       Al  0.11733021  0.41510467  0.32338376     1.55600
O85         O  0.06072302  0.34143018  0.39074478    -0.75300
C86         C  0.11454427  0.46982477  0.35147601     1.00600
C87         C  0.16750454  0.41466423  0.35759685     0.95500
O88         O  0.14693342  0.38454503  0.36146616    -0.80600
O89         O  0.23072270  0.12354319  0.10042643    -0.80100
C90         C  0.16007541  0.11898562  0.19938558     0.99300
O91         O  0.14818773  0.11237058  0.17450484    -0.69200
O92         O  0.17822216  0.15791862  0.13530145    -0.72800
Al93       Al  0.16667942  0.11267981  0.13800984     1.49000
C94         C  0.20051024  0.17701373  0.11822907     0.94500
O95         O  0.25750120  0.18072006  0.16338499    -0.79000
O96         O  0.23457770  0.08579791  0.16238481    -0.72600
Al97       Al  0.24306603  0.15107380  0.13268351     1.90100
O98         O  0.24995745  0.14309308  0.19573013    -0.71600
O99         O  0.17179360  0.05927520  0.17597482    -0.71500
O100        O  0.18579481  0.11771568  0.20568357    -0.77100
O101        O  0.14976136  0.06654414  0.13754587    -0.75300
O102        O  0.20621688  0.12214351  0.15129474    -1.11500
O103        O  0.17839922  0.11186133  0.09917260    -0.70700
C104        C  0.20387623  0.11436774  0.08723823     1.00100
C105        C  0.26349377  0.17316835  0.18750891     0.96400
Al106      Al  0.21014784  0.10295283  0.18268542     1.55600
O107        O  0.22649685  0.17589925  0.11533444    -0.75300
C108        C  0.15261864  0.04761214  0.15475364     1.00600
C109        C  0.26056781  0.10353408  0.14808464     0.95500
O110        O  0.27014603  0.13357362  0.14403709    -0.80600
O111        O  0.23118371  0.12536512  0.48909825    -0.80100
C112        C  0.16090127  0.05902431  0.38989425     0.99300
O113        O  0.14883006  0.05381921  0.41469486    -0.69200
O114        O  0.17915063  0.03827985  0.45350653    -0.72800
Al115      Al  0.16744795  0.07183371  0.45121219     1.49000
C116        C  0.20160283  0.04156407  0.47035963     0.94500
O117        O  0.25851206  0.09607138  0.42589946    -0.79000
O118        O  0.23484421  0.16729182  0.42685178    -0.72600
Al119      Al  0.24378646  0.11075096  0.45665275     1.90100
O120        O  0.25075691  0.12591291  0.39355979    -0.71600
O121        O  0.17202553  0.12993821  0.41318039    -0.71500
O122        O  0.18677261  0.08610163  0.38363684    -0.77100
O123        O  0.15054632  0.10097985  0.45198355    -0.75300
O124        O  0.20694188  0.10239672  0.43800279    -1.11500
O125        O  0.17906816  0.08391765  0.49009554    -0.70700
C126        C  0.20438304  0.10704602  0.00221120     1.00100
C127        C  0.26429327  0.10948362  0.40172467     0.96400
Al128      Al  0.21074140  0.12547001  0.40658437     1.55600
O129        O  0.22739566  0.06900200  0.47359538    -0.75300
C130        C  0.15297796  0.12240388  0.43449535     1.00600
C131        C  0.26079921  0.17594157  0.44126391     0.95500
O132        O  0.27052366  0.15570579  0.44554783    -0.80600
O133        O  0.11703615  0.23973671  0.18305502    -0.80100
C134        C  0.05049351  0.16966225  0.28231406     0.99300
O135        O  0.04524327  0.15761242  0.25750858    -0.69200
O136        O  0.02985533  0.18800976  0.21864429    -0.72800
Al137      Al  0.06331445  0.17616504  0.22098288     1.49000
C138        C  0.03321280  0.21041624  0.20170954     0.94500
O139        O  0.08782083  0.26730265  0.24614831    -0.79000
O140        O  0.15887166  0.24337290  0.24536871    -0.72600
Al141      Al  0.10245036  0.25245487  0.21544898     1.90100
O142        O  0.11752595  0.25944096  0.27856971    -0.71600
O143        O  0.12138031  0.18061085  0.25903370    -0.71500
O144        O  0.07760574  0.19549800  0.28855274    -0.77100
O145        O  0.09236570  0.15914610  0.22025353    -0.75300
O146        O  0.09396751  0.21561775  0.23416197    -1.11500
O147        O  0.07543251  0.18771250  0.18209737    -0.70700
C148        C  0.09862058  0.21296228  0.16996172     1.00100
C149        C  0.10119177  0.27306003  0.27034174     0.96400
Al150      Al  0.11700485  0.21937761  0.26560119     1.55600
O151        O  0.06070148  0.23615500  0.19845798    -0.75300
C152        C  0.11379040  0.16154414  0.23773316     1.00600
C153        C  0.16760521  0.26931444  0.23093299     0.95500
O154        O  0.14741883  0.27908902  0.22657309    -0.80600
O155        O  0.27036228  0.39302899  0.23903070    -0.80100
C156        C  0.34083069  0.45966970  0.13997370     0.99300
O157        O  0.35286173  0.46482989  0.16478993    -0.69200
O158        O  0.32247160  0.48021506  0.20366437    -0.72800
Al159      Al  0.33418550  0.44668146  0.20127754     1.49000
C160        C  0.30001452  0.47686548  0.22054418     0.94500
O161        O  0.24315019  0.42248391  0.17585011    -0.79000
O162        O  0.26689515  0.35130845  0.17669977    -0.72600
Al163      Al  0.25782758  0.40772879  0.20659986     1.90100
O164        O  0.25099977  0.39274135  0.14347984    -0.71600
O165        O  0.32970685  0.38869602  0.16314098    -0.71500
O166        O  0.31499199  0.43259557  0.13366757    -0.77100
O167        O  0.35109100  0.41754639  0.20199940    -0.75300
O168        O  0.29472183  0.41615398  0.18799088    -1.11500
O169        O  0.32248644  0.43445550  0.24012264    -0.70700
C170        C  0.29713351  0.41131475  0.25218833     1.00100
C171        C  0.23741400  0.40911901  0.15165720     0.96400
Al172      Al  0.29100269  0.39317493  0.15652889     1.55600
O173        O  0.27417264  0.44943280  0.22365074    -0.75300
C174        C  0.34868329  0.39615489  0.18449466     1.00600
C175        C  0.24091291  0.34259498  0.19108480     0.95500
O176        O  0.23114506  0.36279322  0.19540188    -0.80600
O177        O  0.11500102  0.23928522  0.07176493    -0.80100
C178        C  0.11048088  0.16875908  0.47280094     0.99300
O179        O  0.10385155  0.15685182  0.49767410    -0.69200
O180        O  0.14935979  0.18677309  0.03692529    -0.72800
Al181      Al  0.10411212  0.17527616  0.03417224     1.49000
C182        C  0.16846164  0.20903762  0.05400255     0.94500
O183        O  0.17225139  0.26602939  0.00883588    -0.79000
O184        O  0.07730741  0.24323488  0.50987217    -0.72600
Al185      Al  0.14257662  0.25162038  0.03953018     1.90100
O186        O  0.13462381  0.25860160  0.47651586    -0.71600
O187        O  0.05073673  0.18047967  0.49619824    -0.71500
O188        O  0.10920976  0.19447108  0.46651128    -0.77100
O189        O  0.05795839  0.15837238  0.03459426    -0.75300
O190        O  0.11361883  0.21481636  0.02090806    -1.11500
O191        O  0.10324337  0.18695880  0.07300234    -0.70700
C192        C  0.10577450  0.21243104  0.08493956     1.00100
C193        C  0.16470848  0.27209610  0.48473671     0.96400
Al194      Al  0.09444741  0.21880695  0.48952924     1.55600
O195        O  0.16736033  0.23501709  0.05689708    -0.75300
C196        C  0.03904112  0.16126005  0.01738493     1.00600
C197        C  0.09509691  0.26921225  0.02415925     0.95500
O198        O  0.12514447  0.27874595  0.02816841    -0.80600
O199        O  0.11586550  0.39234062  0.01671455    -0.80100
C200        C  0.11177190  0.45915814  0.11535651     0.99300
O201        O  0.10607480  0.46484063  0.09031687    -0.69200
O202        O  0.15146147  0.47984824  0.05113480    -0.72800
Al203      Al  0.10597901  0.44631761  0.05394088     1.49000
C204        C  0.17021345  0.47646149  0.03393074     0.94500
O205        O  0.17309953  0.42321837  0.07961995    -0.79000
O206        O  0.07786088  0.35092273  0.07849509    -0.72600
Al207      Al  0.14347724  0.40776148  0.04889230     1.90100
O208        O  0.13517489  0.39321806  0.11196626    -0.71600
O209        O  0.05176716  0.38740591  0.09167262    -0.71500
O210        O  0.10992368  0.43192015  0.12169637    -0.77100
O211        O  0.05964262  0.41743957  0.05357373    -0.75300
O212        O  0.11477285  0.41593046  0.06735145    -1.11500
O213        O  0.10487057  0.43336231  0.01526142    -0.70700
C214        C  0.10705686  0.41018185  0.00345487     1.00100
C215        C  0.16531607  0.40972789  0.10379744     0.96400
Al216      Al  0.09520816  0.39273603  0.09868982     1.55600
O217        O  0.16870780  0.44916800  0.03114888    -0.75300
C218        C  0.04041545  0.39551921  0.07068605     1.00600
C219        C  0.09552937  0.34252801  0.06447348     0.95500
O220        O  0.12565315  0.36306216  0.06053340    -0.80600
O221        O  0.38580213  0.12596325  0.26689486    -0.80100
C222        C  0.38997552  0.05942531  0.36565947     0.99300
O223        O  0.39576473  0.05373882  0.34065516    -0.69200
O224        O  0.35032999  0.03852939  0.30148213    -0.72800
Al225      Al  0.39580230  0.07214638  0.30424066     1.49000
C226        C  0.33153950  0.04184152  0.28426464     0.94500
O227        O  0.32858009  0.09514484  0.32981706    -0.79000
O228        O  0.42376598  0.16755952  0.32859971    -0.72600
Al229      Al  0.35819055  0.11057126  0.29907909     1.90100
O230        O  0.36649835  0.12528288  0.36211519    -0.71600
O231        O  0.44996260  0.13119915  0.34187893    -0.71500
O232        O  0.39180363  0.08666397  0.37195115    -0.77100
O233        O  0.44213116  0.10112341  0.30382415    -0.75300
O234        O  0.38694001  0.10251321  0.31757754    -1.11500
O235        O  0.39685197  0.08497816  0.26553047    -0.70700
C236        C  0.39462564  0.10811249  0.25367405     1.00100
C237        C  0.33635940  0.10872292  0.35395736     0.96400
Al238      Al  0.40648724  0.12579759  0.34887639     1.55600
O239        O  0.33301386  0.06911470  0.28141697    -0.75300
C240        C  0.46133893  0.12312796  0.32088341     1.00600
C241        C  0.40604471  0.17586867  0.31455244     0.95500
O242        O  0.37593542  0.15527813  0.31063342    -0.80600
O243        O  0.38460289  0.27868856  0.43329802    -0.80100
C244        C  0.45118208  0.34926599  0.03230935     0.99300
O245        O  0.45639455  0.36124443  0.00747269    -0.69200
O246        O  0.47181352  0.33085259  0.46864256    -0.72800
Al247      Al  0.43825298  0.34255545  0.47099913     1.49000
C248        C  0.46847922  0.30840238  0.45177936     0.94500
O249        O  0.41409686  0.25162401  0.49656151    -0.79000
O250        O  0.34280043  0.27524964  0.99554551    -0.72600
Al251      Al  0.39932125  0.26622296  0.46576316     1.90100
O252        O  0.38426916  0.25946683  0.02886663    -0.71600
O253        O  0.38015869  0.33807597  0.00905633    -0.71500
O254        O  0.42407759  0.32346086  0.03862648    -0.77100
O255        O  0.40912219  0.35948688  0.47024550    -0.75300
O256        O  0.40770792  0.30311990  0.48431412    -1.11500
O257        O  0.42601341  0.33081083  0.43216401    -0.70700
C258        C  0.40287274  0.30544528  0.42011874     1.00100
C259        C  0.40066807  0.24588247  0.02073483     0.96400
Al260      Al  0.38467123  0.29941822  0.01574415     1.55600
O261        O  0.44104370  0.28255778  0.44870095    -0.75300
C262        C  0.38769248  0.35708460  0.48772145     1.00600
C263        C  0.33412353  0.24924859  0.48121757     0.95500
O264        O  0.35436776  0.23951803  0.47697023    -0.80600
C265        C  0.47819673  0.36460165  0.05271764    -0.11500
C266        C  0.00513146  0.37835456  0.06441582    -0.13100
C267        C  0.08257673  0.31036801  0.05137251    -0.11500
C268        C  0.08241427  0.28846831  0.03740411    -0.13100
C269        C  0.21319535  0.41084291  0.13423394    -0.11500
C270        C  0.19119263  0.41113811  0.12112710    -0.13100
C271        C  0.31429606  0.01775276  0.26277225    -0.11500
C272        C  0.30642728  0.50133149  0.24148256    -0.13100
C273        C  0.22184788  0.31032659  0.20406710    -0.11500
C274        C  0.19988828  0.28835280  0.21795218    -0.13100
C275        C  0.10145209  0.21208816  0.14011142    -0.11500
C276        C  0.10178485  0.21182074  0.11474280    -0.13100
C277        C  0.02352565  0.15432129  0.30278018    -0.11500
C278        C  0.49661566  0.14045413  0.31453080    -0.13100
C279        C  0.30185857  0.23012696  0.46820920    -0.11500
C280        C  0.27989566  0.20817581  0.45430576    -0.13100
C281        C  0.31048610  0.10737588  0.37124018    -0.11500
C282        C  0.28849832  0.10773427  0.38431238    -0.13100
C283        C  0.13503237  0.13963703  0.44064551    -0.11500
C284        C  0.12199970  0.15344482  0.45231581    -0.13100
C285        C  0.19524081  0.01695943  0.49113410    -0.11500
C286        C  0.18743114  0.50048795  0.01239105    -0.13100
C287        C  0.13518001  0.01239416  0.14822819    -0.11500
C288        C  0.12271141  0.48573741  0.13611840    -0.13100
C289        C  0.20327050  0.11036164  0.05743092    -0.11500
C290        C  0.20352901  0.10995232  0.03206042    -0.13100
C291        C  0.18571821  0.20226224  0.07537961    -0.11500
C292        C  0.19373804  0.19426026  0.09684441    -0.13100
C293        C  0.14474406  0.13049231  0.21987350    -0.11500
C294        C  0.13096904  0.14354481  0.23157265    -0.13100
C295        C  0.09947865  0.29730505  0.28771624    -0.11500
C296        C  0.09910073  0.31927526  0.30078637    -0.13100
C297        C  0.00937432  0.32269908  0.40952358    -0.11500
C298        C  0.49295400  0.31481982  0.43082479    -0.13100
C299        C  0.13175937  0.00509211  0.35778800    -0.11500
C300        C  0.14556921  0.03202629  0.36947386    -0.13100
C301        C  0.10297953  0.40664593  0.44835666    -0.11500
C302        C  0.10328600  0.40691492  0.47369528    -0.13100
C303        C  0.41895936  0.22984722  0.28745324    -0.11500
C304        C  0.41890543  0.20799607  0.30141404    -0.13100
C305        C  0.31045222  0.22163760  0.21765395    -0.11500
C306        C  0.28809332  0.19928747  0.20471704    -0.13100
C307        C  0.49750396  0.37472080  0.27394344    -0.11500
C308        C  0.02422254  0.38738878  0.28598346    -0.13100
C309        C  0.39951400  0.30642591  0.36490036    -0.11500
C310        C  0.39991829  0.30619584  0.39027007    -0.13100
C311        C  0.36654714  0.37885328  0.19068631    -0.11500
C312        C  0.37947042  0.36497813  0.20242214    -0.13100
C313        C  0.19966565  0.42752203  0.37071701    -0.11500
C314        C  0.22153072  0.42758972  0.38469108    -0.13100
C315        C  0.19084067  0.29674656  0.46757187    -0.11500
C316        C  0.21319726  0.31913433  0.45466387    -0.13100
C317        C  0.30763239  0.32407214  0.34700350    -0.11500
C318        C  0.31558539  0.31597801  0.32555819    -0.13100
C319        C  0.35659698  0.38800086  0.46985298    -0.11500
C320        C  0.37044229  0.37500794  0.48153270    -0.13100
C321        C  0.36628181  0.00610440  0.39842955    -0.11500
C322        C  0.37890011  0.03282148  0.38640971    -0.13100
C323        C  0.29790132  0.40838783  0.28203631    -0.11500
C324        C  0.29812159  0.40801247  0.30740459    -0.13100
C325        C  0.30167350  0.09086532  0.12093390    -0.11500
C326        C  0.27978586  0.09078258  0.13487507    -0.13100
C327        C  0.40250653  0.19957881  0.05126658    -0.11500
C328        C  0.40230542  0.22162936  0.03816985    -0.13100
C329        C  0.00379804  0.14379464  0.02387122    -0.11500
C330        C  0.47712358  0.13127605  0.03597741    -0.13100
C331        C  0.00863578  0.20401683  0.18087696    -0.11500
C332        C  0.49209496  0.19606057  0.15965231    -0.13100
C333        C  0.36989062  0.01361440  0.10785782    -0.11500
C334        C  0.35615104  0.48669792  0.11957669    -0.13100
C335        C  0.39859187  0.11157888  0.19856668    -0.11500
C336        C  0.39834974  0.11130577  0.22390632    -0.13100
O337        O  0.38380611  0.12405669  0.65559828    -0.80100
C338        C  0.45056650  0.12027635  0.55678172     0.99300
O339        O  0.45633352  0.11460942  0.58179902    -0.69200
O340        O  0.47135329  0.15995727  0.62099940    -0.72800
Al341      Al  0.43786703  0.11445202  0.61821345     1.49000
C342        C  0.46794558  0.17866324  0.63823539     0.94500
O343        O  0.41450014  0.18141247  0.59277088    -0.79000
O344        O  0.34228377  0.08619784  0.59381559    -0.72600
Al345      Al  0.39913814  0.15174419  0.62345649     1.90100
O346        O  0.38455488  0.14355748  0.56036740    -0.71600
O347        O  0.37883023  0.06019188  0.58059008    -0.71500
O348        O  0.42326934  0.11835298  0.55050577    -0.77100
O349        O  0.40904676  0.06812063  0.61858648    -0.75300
O350        O  0.40736094  0.12314984  0.60490219    -1.11500
O351        O  0.42500165  0.11329189  0.65693041    -0.70700
C352        C  0.40176958  0.11535061  0.66880092     1.00100
C353        C  0.40104201  0.17367158  0.56857900     0.96400
Al354      Al  0.38410940  0.10359915  0.57358588     1.55600
O355        O  0.44058386  0.17700867  0.64114520    -0.75300
C356        C  0.38704327  0.04887628  0.60154024     1.00600
C357        C  0.33387041  0.10381764  0.60787748     0.95500
O358        O  0.35440920  0.13390721  0.61188579    -0.80600
O359        O  0.27063738  0.39482412  0.85037752    -0.80100
C360        C  0.34123247  0.39948171  0.94937605     0.99300
O361        O  0.35316662  0.40617704  0.92451158    -0.69200
O362        O  0.32324055  0.36062090  0.88530304    -0.72800
Al363      Al  0.33469520  0.40583480  0.88800690     1.49000
C364        C  0.30091851  0.34144480  0.86829697     0.94500
O365        O  0.24386842  0.33771077  0.91337608    -0.79000
O366        O  0.26672732  0.43262339  0.91228357    -0.72600
Al367      Al  0.25830444  0.36733641  0.88265741     1.90100
O368        O  0.25129720  0.37533460  0.94566516    -0.71600
O369        O  0.32951938  0.45913794  0.92601842    -0.71500
O370        O  0.31545883  0.40066437  0.95566167    -0.77100
O371        O  0.35155477  0.45196370  0.88754941    -0.75300
O372        O  0.29512652  0.39630221  0.90126926    -1.11500
O373        O  0.32299879  0.40662728  0.84916939    -0.70700
C374        C  0.29750476  0.40404538  0.83721159     1.00100
C375        C  0.23780948  0.34525968  0.93746956     0.96400
Al376      Al  0.29113601  0.41546183  0.93264860     1.55600
O377        O  0.27491988  0.34252962  0.86538608    -0.75300
C378        C  0.34872796  0.47085524  0.90482293     1.00600
C379        C  0.24075578  0.41486821  0.89796026     0.95500
O380        O  0.23119470  0.38482615  0.89394843    -0.80600
O381        O  0.38627174  0.27896891  0.82191979    -0.80100
C382        C  0.39086090  0.34959068  0.72294934     0.99300
O383        O  0.39739328  0.36143682  0.74784210    -0.69200
O384        O  0.35189941  0.33146069  0.78708538    -0.72800
Al385      Al  0.39714853  0.34299654  0.78433028     1.49000
C386        C  0.33280628  0.30919020  0.80416342     0.94500
O387        O  0.32904478  0.25222837  0.75897925    -0.79000
O388        O  0.42398845  0.27506928  0.75997076    -0.72600
Al389      Al  0.35871645  0.26664066  0.78967468     1.90100
O390        O  0.36667720  0.25974170  0.72663176    -0.71600
O391        O  0.45056661  0.33784085  0.74636429    -0.71500
O392        O  0.39213950  0.32388701  0.71665865    -0.77100
O393        O  0.44331059  0.35996180  0.78473276    -0.75300
O394        O  0.38767197  0.30346951  0.77105652    -1.11500
O395        O  0.39803247  0.33129629  0.82316033    -0.70700
C396        C  0.39549826  0.30581853  0.83509690     1.00100
C397        C  0.33659027  0.24622683  0.73485620     0.96400
Al398      Al  0.40685882  0.29951665  0.73966826     1.55600
O399        O  0.33390581  0.28320879  0.80704553    -0.75300
C400        C  0.46224576  0.35711268  0.76751708     1.00600
C401        C  0.40622597  0.24908486  0.77425785     0.95500
O402        O  0.37618205  0.23954056  0.77831607    -0.80600
O403        O  0.11757583  0.39417495  0.90530576    -0.80100
C404        C  0.05086783  0.39849982  0.80670845     0.99300
O405        O  0.04519261  0.40424559  0.83173476    -0.69200
O406        O  0.03008086  0.35878563  0.87084786    -0.72800
Al407      Al  0.06367593  0.40425006  0.86811547     1.49000
C408        C  0.03343138  0.33996759  0.88799521     0.94500
O409        O  0.08676600  0.33720267  0.84225194    -0.79000
O410        O  0.15914182  0.43239542  0.84362879    -0.72600
Al411      Al  0.10218835  0.36669733  0.87306069     1.90100
O412        O  0.11691506  0.37522129  0.81003317    -0.71600
O413        O  0.12263341  0.45850490  0.83045468    -0.71500
O414        O  0.07813940  0.40039568  0.80036597    -0.77100
O415        O  0.09260829  0.45057609  0.86857332    -0.75300
O416        O  0.09407411  0.39546721  0.85468109    -1.11500
O417        O  0.07658429  0.40523532  0.90679399    -0.70700
C418        C  0.09973483  0.40296826  0.91859015     1.00100
C419        C  0.10037653  0.34506777  0.81812327     0.96400
Al420      Al  0.11733020  0.41510469  0.82338374     1.55600
O421        O  0.06072308  0.34143020  0.89074473    -0.75300
C422        C  0.11454425  0.46982478  0.85147604     1.00600
C423        C  0.16750455  0.41466426  0.85759680     0.95500
O424        O  0.14693345  0.38454503  0.86146609    -0.80600
O425        O  0.23072270  0.12354324  0.60042641    -0.80100
C426        C  0.16007536  0.11898563  0.69938556     0.99300
O427        O  0.14818773  0.11237059  0.67450485    -0.69200
O428        O  0.17822216  0.15791862  0.63530151    -0.72800
Al429      Al  0.16667941  0.11267981  0.63800985     1.49000
C430        C  0.20051031  0.17701377  0.61822912     0.94500
O431        O  0.25750117  0.18072003  0.66338508    -0.79000
O432        O  0.23457774  0.08579794  0.66238490    -0.72600
Al433      Al  0.24306602  0.15107380  0.63268355     1.90100
O434        O  0.24995742  0.14309308  0.69573022    -0.71600
O435        O  0.17179361  0.05927521  0.67597483    -0.71500
O436        O  0.18579478  0.11771568  0.70568360    -0.77100
O437        O  0.14976131  0.06654412  0.63754590    -0.75300
O438        O  0.20621687  0.12214349  0.65129476    -1.11500
O439        O  0.17839920  0.11186135  0.59917258    -0.70700
C440        C  0.20387622  0.11436776  0.58723817     1.00100
C441        C  0.26349373  0.17316833  0.68750900     0.96400
Al442      Al  0.21014784  0.10295284  0.68268547     1.55600
O443        O  0.22649687  0.17589928  0.61533453    -0.75300
C444        C  0.15261862  0.04761213  0.65475370     1.00600
C445        C  0.26056779  0.10353407  0.64808466     0.95500
O446        O  0.27014600  0.13357361  0.64403707    -0.80600
O447        O  0.23118370  0.12536511  0.98909823    -0.80100
C448        C  0.16090127  0.05902430  0.88989421     0.99300
O449        O  0.14883004  0.05381919  0.91469484    -0.69200
O450        O  0.17915067  0.03827986  0.95350650    -0.72800
Al451      Al  0.16744795  0.07183369  0.95121214     1.49000
C452        C  0.20160283  0.04156406  0.97035957     0.94500
O453        O  0.25851212  0.09607140  0.92589946    -0.79000
O454        O  0.23484427  0.16729182  0.92685172    -0.72600
Al455      Al  0.24378648  0.11075096  0.95665272     1.90100
O456        O  0.25075692  0.12591290  0.89355979    -0.71600
O457        O  0.17202553  0.12993822  0.91318034    -0.71500
O458        O  0.18677261  0.08610162  0.88363683    -0.77100
O459        O  0.15054624  0.10097976  0.95198345    -0.75300
O460        O  0.20694190  0.10239673  0.93800275    -1.11500
O461        O  0.17906815  0.08391765  0.99009551    -0.70700
C462        C  0.20438304  0.10704603  0.50221123     1.00100
C463        C  0.26429330  0.10948365  0.90172464     0.96400
Al464      Al  0.21074142  0.12547001  0.90658434     1.55600
O465        O  0.22739570  0.06900201  0.97359534    -0.75300
C466        C  0.15297790  0.12240385  0.93449526     1.00600
C467        C  0.26079923  0.17594160  0.94126385     0.95500
O468        O  0.27052370  0.15570581  0.94554784    -0.80600
O469        O  0.11703615  0.23973673  0.68305499    -0.80100
C470        C  0.05049347  0.16966224  0.78231403     0.99300
O471        O  0.04524326  0.15761241  0.75750858    -0.69200
O472        O  0.02985536  0.18800986  0.71864432    -0.72800
Al473      Al  0.06331444  0.17616507  0.72098288     1.49000
C474        C  0.03321283  0.21041629  0.70170952     0.94500
O475        O  0.08782085  0.26730270  0.74614829    -0.79000
O476        O  0.15887162  0.24337286  0.74536864    -0.72600
Al477      Al  0.10245037  0.25245491  0.71544897     1.90100
O478        O  0.11752593  0.25944096  0.77856970    -0.71600
O479        O  0.12138028  0.18061085  0.75903371    -0.71500
O480        O  0.07760573  0.19549803  0.78855272    -0.77100
O481        O  0.09236570  0.15914612  0.72025352    -0.75300
O482        O  0.09396750  0.21561777  0.73416196    -1.11500
O483        O  0.07543251  0.18771253  0.68209739    -0.70700
C484        C  0.09862060  0.21296228  0.66996169     1.00100
C485        C  0.10119175  0.27306005  0.77034172     0.96400
Al486      Al  0.11700482  0.21937761  0.76560117     1.55600
O487        O  0.06070150  0.23615505  0.69845793    -0.75300
C488        C  0.11379037  0.16154413  0.73773313     1.00600
C489        C  0.16760521  0.26931446  0.73093296     0.95500
O490        O  0.14741883  0.27908905  0.72657311    -0.80600
O491        O  0.27036224  0.39302890  0.73903064    -0.80100
C492        C  0.34083076  0.45966971  0.63997375     0.99300
O493        O  0.35286177  0.46482990  0.66478992    -0.69200
O494        O  0.32247157  0.48021505  0.70366436    -0.72800
Al495      Al  0.33418549  0.44668145  0.70127753     1.49000
C496        C  0.30001454  0.47686545  0.72054418     0.94500
O497        O  0.24315021  0.42248392  0.67585004    -0.79000
O498        O  0.26689515  0.35130845  0.67669974    -0.72600
Al499      Al  0.25782756  0.40772877  0.70659982     1.90100
O500        O  0.25099984  0.39274136  0.64347979    -0.71600
O501        O  0.32970686  0.38869604  0.66314096    -0.71500
O502        O  0.31499199  0.43259557  0.63366760    -0.77100
O503        O  0.35109098  0.41754637  0.70199940    -0.75300
O504        O  0.29472182  0.41615398  0.68799086    -1.11500
O505        O  0.32248638  0.43445547  0.74012259    -0.70700
C506        C  0.29713349  0.41131471  0.75218830     1.00100
C507        C  0.23741405  0.40911905  0.65165713     0.96400
Al508      Al  0.29100271  0.39317494  0.65652889     1.55600
O509        O  0.27417263  0.44943279  0.72365076    -0.75300
C510        C  0.34868327  0.39615489  0.68449461     1.00600
C511        C  0.24091287  0.34259497  0.69108478     0.95500
O512        O  0.23114504  0.36279322  0.69540180    -0.80600
O513        O  0.11500103  0.23928524  0.57176494    -0.80100
C514        C  0.11048087  0.16875906  0.97280097     0.99300
O515        O  0.10385148  0.15685179  0.99767409    -0.69200
O516        O  0.14935978  0.18677309  0.53692536    -0.72800
Al517      Al  0.10411214  0.17527617  0.53417225     1.49000
C518        C  0.16846165  0.20903762  0.55400264     0.94500
O519        O  0.17225143  0.26602942  0.50883592    -0.79000
O520        O  0.07730738  0.24323489  0.00987211    -0.72600
Al521      Al  0.14257665  0.25162039  0.53953021     1.90100
O522        O  0.13462379  0.25860161  0.97651581    -0.71600
O523        O  0.05073672  0.18047967  0.99619825    -0.71500
O524        O  0.10920977  0.19447109  0.96651130    -0.77100
O525        O  0.05795843  0.15837238  0.53459423    -0.75300
O526        O  0.11361885  0.21481636  0.52090808    -1.11500
O527        O  0.10324338  0.18695882  0.57300233    -0.70700
C528        C  0.10577455  0.21243111  0.58493960     1.00100
C529        C  0.16470848  0.27209610  0.98473672     0.96400
Al530      Al  0.09444740  0.21880695  0.98952922     1.55600
O531        O  0.16736033  0.23501709  0.55689716    -0.75300
C532        C  0.03904115  0.16126004  0.51738495     1.00600
C533        C  0.09509699  0.26921230  0.52415926     0.95500
O534        O  0.12514452  0.27874596  0.52816844    -0.80600
O535        O  0.11586547  0.39234062  0.51671452    -0.80100
C536        C  0.11177192  0.45915814  0.61535653     0.99300
O537        O  0.10607476  0.46484061  0.59031686    -0.69200
O538        O  0.15146149  0.47984824  0.55113482    -0.72800
Al539      Al  0.10597901  0.44631762  0.55394085     1.49000
C540        C  0.17021348  0.47646151  0.53393079     0.94500
O541        O  0.17309951  0.42321835  0.57961993    -0.79000
O542        O  0.07786087  0.35092274  0.57849505    -0.72600
Al543      Al  0.14347721  0.40776147  0.54889227     1.90100
O544        O  0.13517489  0.39321805  0.61196625    -0.71600
O545        O  0.05176716  0.38740597  0.59167260    -0.71500
O546        O  0.10992377  0.43192017  0.62169630    -0.77100
O547        O  0.05964260  0.41743954  0.55357365    -0.75300
O548        O  0.11477284  0.41593046  0.56735140    -1.11500
O549        O  0.10487060  0.43336235  0.51526135    -0.70700
C550        C  0.10705685  0.41018187  0.50345481     1.00100
C551        C  0.16531606  0.40972790  0.60379746     0.96400
Al552      Al  0.09520816  0.39273605  0.59868978     1.55600
O553        O  0.16870776  0.44916798  0.53114885    -0.75300
C554        C  0.04041545  0.39551923  0.57068597     1.00600
C555        C  0.09552934  0.34252798  0.56447348     0.95500
O556        O  0.12565314  0.36306217  0.56053335    -0.80600
O557        O  0.38580204  0.12596317  0.76689483    -0.80100
C558        C  0.38997557  0.05942533  0.86565943     0.99300
O559        O  0.39576475  0.05373879  0.84065512    -0.69200
O560        O  0.35033001  0.03852935  0.80148218    -0.72800
Al561      Al  0.39580231  0.07214636  0.80424066     1.49000
C562        C  0.33153949  0.04184146  0.78426463     0.94500
O563        O  0.32858007  0.09514478  0.82981709    -0.79000
O564        O  0.42376593  0.16755954  0.82859976    -0.72600
Al565      Al  0.35819052  0.11057119  0.79907909     1.90100
O566        O  0.36649834  0.12528287  0.86211520    -0.71600
O567        O  0.44996260  0.13119916  0.84187890    -0.71500
O568        O  0.39180372  0.08666399  0.87195112    -0.77100
O569        O  0.44213118  0.10112342  0.80382412    -0.75300
O570        O  0.38694001  0.10251319  0.81757754    -1.11500
O571        O  0.39685197  0.08497814  0.76553045    -0.70700
C572        C  0.39462559  0.10811239  0.75367404     1.00100
C573        C  0.33635939  0.10872292  0.85395740     0.96400
Al574      Al  0.40648724  0.12579759  0.84887639     1.55600
O575        O  0.33301385  0.06911462  0.78141697    -0.75300
C576        C  0.46133897  0.12312800  0.82088343     1.00600
C577        C  0.40604466  0.17586863  0.81455240     0.95500
O578        O  0.37593540  0.15527808  0.81063336    -0.80600
O579        O  0.38460291  0.27868859  0.93329806    -0.80100
C580        C  0.45118206  0.34926597  0.53230935     0.99300
O581        O  0.45639446  0.36124443  0.50747269    -0.69200
O582        O  0.47181356  0.33085261  0.96864252    -0.72800
Al583      Al  0.43825302  0.34255546  0.97099914     1.49000
C584        C  0.46847921  0.30840238  0.95177934     0.94500
O585        O  0.41409694  0.25162403  0.99656158    -0.79000
O586        O  0.34280037  0.27524967  0.49554554    -0.72600
Al587      Al  0.39932130  0.26622297  0.96576320     1.90100
O588        O  0.38426911  0.25946680  0.52886658    -0.71600
O589        O  0.38015869  0.33807597  0.50905638    -0.71500
O590        O  0.42407757  0.32346076  0.53862645    -0.77100
O591        O  0.40912225  0.35948691  0.97024550    -0.75300
O592        O  0.40770797  0.30311992  0.98431415    -1.11500
O593        O  0.42601343  0.33081085  0.93216407    -0.70700
C594        C  0.40287275  0.30544533  0.92011877     1.00100
C595        C  0.40066801  0.24588245  0.52073481     0.96400
Al596      Al  0.38467119  0.29941821  0.51574414     1.55600
O597        O  0.44104372  0.28255778  0.94870098    -0.75300
C598        C  0.38769247  0.35708457  0.98772147     1.00600
C599        C  0.33412356  0.24924860  0.98121757     0.95500
O600        O  0.35436781  0.23951799  0.97697024    -0.80600
C601        C  0.47819668  0.36460157  0.55271759    -0.11500
C602        C  0.00513146  0.37835455  0.56441577    -0.13100
C603        C  0.08257676  0.31036799  0.55137255    -0.11500
C604        C  0.08241435  0.28846836  0.53740411    -0.13100
C605        C  0.21319544  0.41084291  0.63423385    -0.11500
C606        C  0.19119263  0.41113813  0.62112709    -0.13100
C607        C  0.31429612  0.01775268  0.76277229    -0.11500
C608        C  0.30642736  0.50133142  0.74148264    -0.13100
C609        C  0.22184789  0.31032663  0.70406708    -0.11500
C610        C  0.19988825  0.28835280  0.71795219    -0.13100
C611        C  0.10145214  0.21208812  0.64011147    -0.11500
C612        C  0.10178495  0.21182078  0.61474276    -0.13100
C613        C  0.02352564  0.15432131  0.80278018    -0.11500
C614        C  0.49661570  0.14045417  0.81453079    -0.13100
C615        C  0.30185863  0.23012696  0.96820915    -0.11500
C616        C  0.27989571  0.20817586  0.95430569    -0.13100
C617        C  0.31048612  0.10737592  0.87124017    -0.11500
C618        C  0.28849832  0.10773431  0.88431236    -0.13100
C619        C  0.13503235  0.13963702  0.94064548    -0.11500
C620        C  0.12199972  0.15344483  0.95231582    -0.13100
C621        C  0.19524085  0.01695942  0.99113405    -0.11500
C622        C  0.18743124  0.50048801  0.51239114    -0.13100
C623        C  0.13517997  0.01239414  0.64822826    -0.11500
C624        C  0.12271134  0.48573732  0.63611845    -0.13100
C625        C  0.20327049  0.11036165  0.55743092    -0.11500
C626        C  0.20352900  0.10995234  0.53206041    -0.13100
C627        C  0.18571823  0.20226224  0.57537966    -0.11500
C628        C  0.19373806  0.19426026  0.59684447    -0.13100
C629        C  0.14474404  0.13049232  0.71987349    -0.11500
C630        C  0.13096903  0.14354482  0.73157267    -0.13100
C631        C  0.09947865  0.29730507  0.78771625    -0.11500
C632        C  0.09910079  0.31927530  0.80078637    -0.13100
C633        C  0.00937442  0.32269919  0.90952361    -0.11500
C634        C  0.49295398  0.31481982  0.93082472    -0.13100
C635        C  0.13175936  0.00509210  0.85778798    -0.11500
C636        C  0.14556922  0.03202631  0.86947385    -0.13100
C637        C  0.10297964  0.40664595  0.94835671    -0.11500
C638        C  0.10328602  0.40691495  0.97369529    -0.13100
C639        C  0.41895934  0.22984721  0.78745320    -0.11500
C640        C  0.41890541  0.20799602  0.80141398    -0.13100
C641        C  0.31045220  0.22163761  0.71765397    -0.11500
C642        C  0.28809330  0.19928748  0.70471712    -0.13100
C643        C  0.49750392  0.37472081  0.77394348    -0.11500
C644        C  0.02422251  0.38738878  0.78598354    -0.13100
C645        C  0.39951406  0.30642606  0.86490036    -0.11500
C646        C  0.39991833  0.30619597  0.89027011    -0.13100
C647        C  0.36654714  0.37885329  0.69068624    -0.11500
C648        C  0.37947042  0.36497812  0.70242205    -0.13100
C649        C  0.19966563  0.42752203  0.87071697    -0.11500
C650        C  0.22153070  0.42758973  0.88469108    -0.13100
C651        C  0.19084069  0.29674662  0.96757190    -0.11500
C652        C  0.21319726  0.31913436  0.95466393    -0.13100
C653        C  0.30763234  0.32407214  0.84700350    -0.11500
C654        C  0.31558536  0.31597805  0.82555816    -0.13100
C655        C  0.35659695  0.38800080  0.96985299    -0.11500
C656        C  0.37044231  0.37500795  0.98153267    -0.13100
C657        C  0.36628177  0.00610441  0.89842953    -0.11500
C658        C  0.37890010  0.03282147  0.88640967    -0.13100
C659        C  0.29790129  0.40838782  0.78203624    -0.11500
C660        C  0.29812161  0.40801248  0.80740459    -0.13100
C661        C  0.30167346  0.09086534  0.62093387    -0.11500
C662        C  0.27978580  0.09078256  0.63487503    -0.13100
C663        C  0.40250653  0.19957878  0.55126653    -0.11500
C664        C  0.40230540  0.22162936  0.53816977    -0.13100
C665        C  0.00379808  0.14379467  0.52387126    -0.11500
C666        C  0.47712357  0.13127599  0.53597736    -0.13100
C667        C  0.00863584  0.20401684  0.68087692    -0.11500
C668        C  0.49209497  0.19606056  0.65965227    -0.13100
C669        C  0.36989059  0.01361439  0.60785789    -0.11500
C670        C  0.35615104  0.48669790  0.61957667    -0.13100
C671        C  0.39859175  0.11157869  0.69856666    -0.11500
C672        C  0.39834965  0.11130566  0.72390626    -0.13100
O673        O  0.38380611  0.62405676  0.15559832    -0.80100
C674        C  0.45056648  0.62027642  0.05678170     0.99300
O675        O  0.45633355  0.61460946  0.08179907    -0.69200
O676        O  0.47135333  0.65995727  0.12099947    -0.72800
Al677      Al  0.43786702  0.61445202  0.11821346     1.49000
C678        C  0.46794561  0.67866327  0.13823539     0.94500
O679        O  0.41450005  0.68141247  0.09277093    -0.79000
O680        O  0.34228377  0.58619780  0.09381555    -0.72600
Al681      Al  0.39913813  0.65174421  0.12345650     1.90100
O682        O  0.38455484  0.64355751  0.06036741    -0.71600
O683        O  0.37883026  0.56019190  0.08059001    -0.71500
O684        O  0.42326938  0.61835305  0.05050581    -0.77100
O685        O  0.40904675  0.56812060  0.11858643    -0.75300
O686        O  0.40736094  0.62314987  0.10490219    -1.11500
O687        O  0.42500160  0.61329187  0.15693040    -0.70700
C688        C  0.40176959  0.61535063  0.16880097     1.00100
C689        C  0.40104198  0.67367162  0.06857906     0.96400
Al690      Al  0.38410941  0.60359918  0.07358587     1.55600
O691        O  0.44058388  0.67700873  0.14114516    -0.75300
C692        C  0.38704330  0.54887625  0.10154018     1.00600
C693        C  0.33387044  0.60381764  0.10787745     0.95500
O694        O  0.35440920  0.63390718  0.11188575    -0.80600
O695        O  0.27063738  0.89482409  0.35037751    -0.80100
C696        C  0.34123253  0.89948175  0.44937606     0.99300
O697        O  0.35316669  0.90617709  0.42451157    -0.69200
O698        O  0.32324050  0.86062082  0.38530310    -0.72800
Al699      Al  0.33469522  0.90583480  0.38800689     1.49000
C700        C  0.30091853  0.84144481  0.36829700     0.94500
O701        O  0.24386847  0.83771081  0.41337606    -0.79000
O702        O  0.26672734  0.93262342  0.41228360    -0.72600
Al703      Al  0.25830447  0.86733643  0.38265740     1.90100
O704        O  0.25129725  0.87533462  0.44566517    -0.71600
O705        O  0.32951940  0.95913793  0.42601838    -0.71500
O706        O  0.31545887  0.90066439  0.45566165    -0.77100
O707        O  0.35155481  0.95196370  0.38754935    -0.75300
O708        O  0.29512655  0.89630223  0.40126924    -1.11500
O709        O  0.32299881  0.90662727  0.34916937    -0.70700
C710        C  0.29750478  0.90404537  0.33721163     1.00100
C711        C  0.23780952  0.84525972  0.43746957     0.96400
Al712      Al  0.29113605  0.91546185  0.43264860     1.55600
O713        O  0.27491991  0.84252965  0.36538602    -0.75300
C714        C  0.34872799  0.97085526  0.40482293     1.00600
C715        C  0.24075583  0.91486824  0.39796028     0.95500
O716        O  0.23119473  0.88482618  0.39394847    -0.80600
O717        O  0.38627162  0.77896885  0.32191981    -0.80100
C718        C  0.39086087  0.84959065  0.22294940     0.99300
O719        O  0.39739332  0.86143681  0.24784213    -0.69200
O720        O  0.35189935  0.83146052  0.28708532    -0.72800
Al721      Al  0.39714852  0.84299650  0.28433030     1.49000
C722        C  0.33280625  0.80919006  0.30416343     0.94500
O723        O  0.32904480  0.75222838  0.25897922    -0.79000
O724        O  0.42398847  0.77506924  0.25997069    -0.72600
Al725      Al  0.35871643  0.76664062  0.28967466     1.90100
O726        O  0.36667723  0.75974169  0.22663174    -0.71600
O727        O  0.45056661  0.83784085  0.24636431    -0.71500
O728        O  0.39213946  0.82388695  0.21665870    -0.77100
O729        O  0.44331061  0.85996180  0.28473279    -0.75300
O730        O  0.38767199  0.80346948  0.27105654    -1.11500
O731        O  0.39803247  0.83129627  0.32316036    -0.70700
C732        C  0.39549820  0.80581847  0.33509689     1.00100
C733        C  0.33659030  0.74622683  0.23485613     0.96400
Al734      Al  0.40685882  0.79951663  0.23966825     1.55600
O735        O  0.33390574  0.78320866  0.30704555    -0.75300
C736        C  0.46224578  0.85711263  0.26751702     1.00600
C737        C  0.40622602  0.74908488  0.27425784     0.95500
O738        O  0.37618210  0.73954057  0.27831608    -0.80600
O739        O  0.11757571  0.89417498  0.40530573    -0.80100
C740        C  0.05086786  0.89849984  0.30670840     0.99300
O741        O  0.04519259  0.90424555  0.33173473    -0.69200
O742        O  0.03008080  0.85878558  0.37084791    -0.72800
Al743      Al  0.06367586  0.90425002  0.36811547     1.49000
C744        C  0.03343130  0.83996746  0.38799527     0.94500
O745        O  0.08676589  0.83720265  0.34225192    -0.79000
O746        O  0.15914184  0.93239542  0.34362879    -0.72600
Al747      Al  0.10218827  0.86669732  0.37306070     1.90100
O748        O  0.11691506  0.87522127  0.31003319    -0.71600
O749        O  0.12263343  0.95850487  0.33045471    -0.71500
O750        O  0.07813944  0.90039569  0.30036597    -0.77100
O751        O  0.09260823  0.95057605  0.36857330    -0.75300
O752        O  0.09407407  0.89546719  0.35468111    -1.11500
O753        O  0.07658413  0.90523529  0.40679399    -0.70700
C754        C  0.09973470  0.90296827  0.41859015     1.00100
C755        C  0.10037647  0.84506780  0.31812324     0.96400
Al756      Al  0.11733020  0.91510468  0.32338376     1.55600
O757        O  0.06072299  0.84143010  0.39074476    -0.75300
C758        C  0.11454425  0.96982474  0.35147602     1.00600
C759        C  0.16750451  0.91466428  0.35759685     0.95500
O760        O  0.14693342  0.88454507  0.36146616    -0.80600
O761        O  0.23072270  0.62354318  0.10042643    -0.80100
C762        C  0.16007544  0.61898566  0.19938557     0.99300
O763        O  0.14818776  0.61237062  0.17450484    -0.69200
O764        O  0.17822218  0.65791863  0.13530147    -0.72800
Al765      Al  0.16667943  0.61267983  0.13800985     1.49000
C766        C  0.20051025  0.67701373  0.11822906     0.94500
O767        O  0.25750123  0.68072008  0.16338499    -0.79000
O768        O  0.23457770  0.58579787  0.16238481    -0.72600
Al769      Al  0.24306604  0.65107380  0.13268351     1.90100
O770        O  0.24995747  0.64309311  0.19573012    -0.71600
O771        O  0.17179358  0.55927516  0.17597483    -0.71500
O772        O  0.18579483  0.61771571  0.20568357    -0.77100
O773        O  0.14976137  0.56654415  0.13754588    -0.75300
O774        O  0.20621689  0.62214351  0.15129474    -1.11500
O775        O  0.17839922  0.61186133  0.09917260    -0.70700
C776        C  0.20387621  0.61436772  0.08723823     1.00100
C777        C  0.26349379  0.67316838  0.18750891     0.96400
Al778      Al  0.21014785  0.60295282  0.18268543     1.55600
O779        O  0.22649688  0.67589928  0.11533444    -0.75300
C780        C  0.15261863  0.54761212  0.15475366     1.00600
C781        C  0.26056774  0.60353399  0.14808461     0.95500
O782        O  0.27014600  0.63357358  0.14403707    -0.80600
O783        O  0.23118373  0.62536516  0.48909826    -0.80100
C784        C  0.16090128  0.55902432  0.38989425     0.99300
O785        O  0.14883007  0.55381916  0.41469487    -0.69200
O786        O  0.17915066  0.53827988  0.45350654    -0.72800
Al787      Al  0.16744796  0.57183370  0.45121218     1.49000
C788        C  0.20160286  0.54156411  0.47035964     0.94500
O789        O  0.25851209  0.59607143  0.42589946    -0.79000
O790        O  0.23484424  0.66729186  0.42685178    -0.72600
Al791      Al  0.24378648  0.61075100  0.45665274     1.90100
O792        O  0.25075693  0.62591294  0.39355978    -0.71600
O793        O  0.17202556  0.62993825  0.41318042    -0.71500
O794        O  0.18677259  0.58610165  0.38363686    -0.77100
O795        O  0.15054625  0.60097977  0.45198352    -0.75300
O796        O  0.20694189  0.60239675  0.43800279    -1.11500
O797        O  0.17906818  0.58391769  0.49009554    -0.70700
C798        C  0.20438306  0.60704605  0.00221120     1.00100
C799        C  0.26429329  0.60948366  0.40172467     0.96400
Al800      Al  0.21074141  0.62547004  0.40658438     1.55600
O801        O  0.22739569  0.56900204  0.47359539    -0.75300
C802        C  0.15297795  0.62240388  0.43449534     1.00600
C803        C  0.26079923  0.67594161  0.44126391     0.95500
O804        O  0.27052368  0.65570583  0.44554783    -0.80600
O805        O  0.11703615  0.73973673  0.18305500    -0.80100
C806        C  0.05049347  0.66966221  0.28231404     0.99300
O807        O  0.04524328  0.65761243  0.25750859    -0.69200
O808        O  0.02985535  0.68800980  0.21864430    -0.72800
Al809      Al  0.06331447  0.67616507  0.22098289     1.49000
C810        C  0.03321283  0.71041628  0.20170954     0.94500
O811        O  0.08782086  0.76730269  0.24614831    -0.79000
O812        O  0.15887167  0.74337290  0.24536871    -0.72600
Al813      Al  0.10245038  0.75245490  0.21544898     1.90100
O814        O  0.11752598  0.75944100  0.27856971    -0.71600
O815        O  0.12138022  0.68061075  0.25903380    -0.71500
O816        O  0.07760574  0.69549802  0.28855276    -0.77100
O817        O  0.09236574  0.65914614  0.22025355    -0.75300
O818        O  0.09396753  0.71561777  0.23416198    -1.11500
O819        O  0.07543252  0.68771252  0.18209739    -0.70700
C820        C  0.09862059  0.71296229  0.16996173     1.00100
C821        C  0.10119180  0.77306007  0.27034174     0.96400
Al822      Al  0.11700484  0.71937760  0.26560121     1.55600
O823        O  0.06070150  0.73615504  0.19845798    -0.75300
C824        C  0.11379035  0.66154407  0.23773319     1.00600
C825        C  0.16760523  0.76931446  0.23093300     0.95500
O826        O  0.14741886  0.77908905  0.22657309    -0.80600
O827        O  0.27036221  0.89302898  0.23903072    -0.80100
C828        C  0.34083071  0.95966972  0.13997371     0.99300
O829        O  0.35286175  0.96482992  0.16478993    -0.69200
O830        O  0.32247162  0.98021509  0.20366434    -0.72800
Al831      Al  0.33418550  0.94668147  0.20127753     1.49000
C832        C  0.30001457  0.97686551  0.22054418     0.94500
O833        O  0.24315022  0.92248395  0.17585011    -0.79000
O834        O  0.26689515  0.85130846  0.17669976    -0.72600
Al835      Al  0.25782758  0.90772881  0.20659986     1.90100
O836        O  0.25099979  0.89274139  0.14347984    -0.71600
O837        O  0.32970681  0.88869595  0.16314101    -0.71500
O838        O  0.31499202  0.93259559  0.13366758    -0.77100
O839        O  0.35109103  0.91754642  0.20199937    -0.75300
O840        O  0.29472184  0.91615399  0.18799089    -1.11500
O841        O  0.32248639  0.93445547  0.24012263    -0.70700
C842        C  0.29713351  0.91131477  0.25218834     1.00100
C843        C  0.23741403  0.90911906  0.15165720     0.96400
Al844      Al  0.29100269  0.89317493  0.15652890     1.55600
O845        O  0.27417269  0.94943287  0.22365076    -0.75300
C846        C  0.34868329  0.89615488  0.18449467     1.00600
C847        C  0.24091290  0.84259496  0.19108480     0.95500
O848        O  0.23114505  0.86279323  0.19540187    -0.80600
O849        O  0.11500101  0.73928518  0.07176494    -0.80100
C850        C  0.11048088  0.66875909  0.47280093     0.99300
O851        O  0.10385148  0.65685177  0.49767409    -0.69200
O852        O  0.14935977  0.68677311  0.03692530    -0.72800
Al853      Al  0.10411212  0.67527615  0.03417226     1.49000
C854        C  0.16846163  0.70903766  0.05400256     0.94500
O855        O  0.17225141  0.76602943  0.00883588    -0.79000
O856        O  0.07730736  0.74323482  0.50987218    -0.72600
Al857      Al  0.14257662  0.75162037  0.03953018     1.90100
O858        O  0.13462382  0.75860163  0.47651586    -0.71600
O859        O  0.05073672  0.68047965  0.49619823    -0.71500
O860        O  0.10920980  0.69447110  0.46651130    -0.77100
O861        O  0.05795838  0.65837238  0.03459429    -0.75300
O862        O  0.11361883  0.71481635  0.02090808    -1.11500
O863        O  0.10324342  0.68695879  0.07300238    -0.70700
C864        C  0.10577455  0.71243104  0.08493957     1.00100
C865        C  0.16470849  0.77209614  0.48473672     0.96400
Al866      Al  0.09444741  0.71880694  0.48952925     1.55600
O867        O  0.16736035  0.73501712  0.05689709    -0.75300
C868        C  0.03904111  0.66125997  0.01738494     1.00600
C869        C  0.09509690  0.76921223  0.02415927     0.95500
O870        O  0.12514442  0.77874589  0.02816841    -0.80600
O871        O  0.11586549  0.89234062  0.01671456    -0.80100
C872        C  0.11177191  0.95915817  0.11535652     0.99300
O873        O  0.10607484  0.96484067  0.09031687    -0.69200
O874        O  0.15146151  0.97984826  0.05113477    -0.72800
Al875      Al  0.10597903  0.94631764  0.05394088     1.49000
C876        C  0.17021348  0.97646150  0.03393074     0.94500
O877        O  0.17309954  0.92321840  0.07961994    -0.79000
O878        O  0.07786090  0.85092276  0.07849509    -0.72600
Al879      Al  0.14347724  0.90776149  0.04889231     1.90100
O880        O  0.13517492  0.89321809  0.11196626    -0.71600
O881        O  0.05176718  0.88740595  0.09167262    -0.71500
O882        O  0.10992369  0.93192017  0.12169636    -0.77100
O883        O  0.05964263  0.91743960  0.05357373    -0.75300
O884        O  0.11477287  0.91593049  0.06735145    -1.11500
O885        O  0.10487057  0.93336232  0.01526143    -0.70700
C886        C  0.10705685  0.91018179  0.00345488     1.00100
C887        C  0.16531610  0.90972794  0.10379744     0.96400
Al888      Al  0.09520818  0.89273607  0.09868982     1.55600
O889        O  0.16870777  0.94916794  0.03114887    -0.75300
C890        C  0.04041546  0.89551923  0.07068605     1.00600
C891        C  0.09552939  0.84252804  0.06447348     0.95500
O892        O  0.12565318  0.86306218  0.06053341    -0.80600
O893        O  0.38580210  0.62596320  0.26689484    -0.80100
C894        C  0.38997555  0.55942536  0.36565947     0.99300
O895        O  0.39576476  0.55373885  0.34065516    -0.69200
O896        O  0.35032998  0.53852933  0.30148212    -0.72800
Al897      Al  0.39580230  0.57214636  0.30424067     1.49000
C898        C  0.33153948  0.54184148  0.28426462     0.94500
O899        O  0.32858009  0.59514484  0.32981707    -0.79000
O900        O  0.42376596  0.66755949  0.32859968    -0.72600
Al901      Al  0.35819055  0.61057124  0.29907909     1.90100
O902        O  0.36649837  0.62528291  0.36211518    -0.71600
O903        O  0.44996260  0.63119914  0.34187893    -0.71500
O904        O  0.39180365  0.58666400  0.37195116    -0.77100
O905        O  0.44213117  0.60112342  0.30382416    -0.75300
O906        O  0.38694000  0.60251319  0.31757755    -1.11500
O907        O  0.39685196  0.58497813  0.26553048    -0.70700
C908        C  0.39462560  0.60811238  0.25367404     1.00100
C909        C  0.33635941  0.60872295  0.35395736     0.96400
Al910      Al  0.40648724  0.62579759  0.34887638     1.55600
O911        O  0.33301386  0.56911467  0.28141698    -0.75300
C912        C  0.46133891  0.62312792  0.32088340     1.00600
C913        C  0.40604470  0.67586866  0.31455243     0.95500
O914        O  0.37593541  0.65527812  0.31063340    -0.80600
O915        O  0.38460277  0.77868847  0.43329802    -0.80100
C916        C  0.45118209  0.84926596  0.03230935     0.99300
O917        O  0.45639449  0.86124439  0.00747270    -0.69200
O918        O  0.47181351  0.83085257  0.46864255    -0.72800
Al919      Al  0.43825293  0.84255537  0.47099913     1.49000
C920        C  0.46847921  0.80840235  0.45177940     0.94500
O921        O  0.41409685  0.75162401  0.49656152    -0.79000
O922        O  0.34280044  0.77524967  0.99554552    -0.72600
Al923      Al  0.39932122  0.76622291  0.46576318     1.90100
O924        O  0.38426913  0.75946684  0.02886665    -0.71600
O925        O  0.38015870  0.83807597  0.00905634    -0.71500
O926        O  0.42407756  0.82346077  0.03862648    -0.77100
O927        O  0.40912209  0.85948671  0.47024548    -0.75300
O928        O  0.40770789  0.80311984  0.48431413    -1.11500
O929        O  0.42601335  0.83081068  0.43216402    -0.70700
C930        C  0.40287271  0.80544525  0.42011874     1.00100
C931        C  0.40066806  0.74588249  0.02073483     0.96400
Al932      Al  0.38467122  0.79941821  0.01574415     1.55600
O933        O  0.44104369  0.78255771  0.44870102    -0.75300
C934        C  0.38769241  0.85708447  0.48772143     1.00600
C935        C  0.33412353  0.74924861  0.48121757     0.95500
O936        O  0.35436774  0.73951802  0.47697025    -0.80600
C937        C  0.47819670  0.86460156  0.05271764    -0.11500
C938        C  0.00513148  0.87835455  0.06441582    -0.13100
C939        C  0.08257676  0.81036804  0.05137250    -0.11500
C940        C  0.08241427  0.78846830  0.03740409    -0.13100
C941        C  0.21319537  0.91084295  0.13423394    -0.11500
C942        C  0.19119266  0.91113816  0.12112710    -0.13100
C943        C  0.31429600  0.51775273  0.26277224    -0.11500
C944        C  0.30642741  0.00133156  0.24148257    -0.13100
C945        C  0.22184790  0.81032662  0.20406708    -0.11500
C946        C  0.19988828  0.78835280  0.21795220    -0.13100
C947        C  0.10145208  0.71208811  0.14011143    -0.11500
C948        C  0.10178489  0.71182073  0.11474282    -0.13100
C949        C  0.02352564  0.65432127  0.30278017    -0.11500
C950        C  0.49661566  0.64045413  0.31453080    -0.13100
C951        C  0.30185858  0.73012699  0.46820920    -0.11500
C952        C  0.27989569  0.70817585  0.45430576    -0.13100
C953        C  0.31048612  0.60737593  0.37124018    -0.11500
C954        C  0.28849835  0.60773431  0.38431238    -0.13100
C955        C  0.13503239  0.63963704  0.44064553    -0.11500
C956        C  0.12199973  0.65344484  0.45231581    -0.13100
C957        C  0.19524083  0.51695946  0.49113412    -0.11500
C958        C  0.18743123  0.00048791  0.01239105    -0.13100
C959        C  0.13518000  0.51239416  0.14822817    -0.11500
C960        C  0.12271140  0.98573741  0.13611843    -0.13100
C961        C  0.20327050  0.61036164  0.05743093    -0.11500
C962        C  0.20352903  0.60995236  0.03206042    -0.13100
C963        C  0.18571818  0.70226223  0.07537962    -0.11500
C964        C  0.19373799  0.69426020  0.09684438    -0.13100
C965        C  0.14474409  0.63049234  0.21987349    -0.11500
C966        C  0.13096903  0.64354481  0.23157268    -0.13100
C967        C  0.09947867  0.79730510  0.28771625    -0.11500
C968        C  0.09910071  0.81927529  0.30078635    -0.13100
C969        C  0.00937431  0.82269906  0.40952358    -0.11500
C970        C  0.49295395  0.81481976  0.43082480    -0.13100
C971        C  0.13175939  0.50509216  0.35778801    -0.11500
C972        C  0.14556922  0.53202630  0.36947384    -0.13100
C973        C  0.10297955  0.90664597  0.44835666    -0.11500
C974        C  0.10328600  0.90691493  0.47369529    -0.13100
C975        C  0.41895940  0.72984725  0.28745325    -0.11500
C976        C  0.41890544  0.70799607  0.30141406    -0.13100
C977        C  0.31045224  0.72163764  0.21765393    -0.11500
C978        C  0.28809333  0.69928750  0.20471704    -0.13100
C979        C  0.49750397  0.87472084  0.27394343    -0.11500
C980        C  0.02422256  0.88738882  0.28598345    -0.13100
C981        C  0.39951402  0.80642596  0.36490035    -0.11500
C982        C  0.39991826  0.80619581  0.39027007    -0.13100
C983        C  0.36654712  0.87885326  0.19068632    -0.11500
C984        C  0.37947038  0.86497804  0.20242213    -0.13100
C985        C  0.19966567  0.92752208  0.37071703    -0.11500
C986        C  0.22153072  0.92758976  0.38469106    -0.13100
C987        C  0.19084069  0.79674660  0.46757187    -0.11500
C988        C  0.21319728  0.81913437  0.45466387    -0.13100
C989        C  0.30763240  0.82407216  0.34700347    -0.11500
C990        C  0.31558541  0.81597803  0.32555819    -0.13100
C991        C  0.35659699  0.88800083  0.46985298    -0.11500
C992        C  0.37044229  0.87500790  0.48153270    -0.13100
C993        C  0.36628179  0.50610439  0.39842947    -0.11500
C994        C  0.37890011  0.53282149  0.38640968    -0.13100
C995        C  0.29790131  0.90838784  0.28203630    -0.11500
C996        C  0.29812161  0.90801251  0.30740460    -0.13100
C997        C  0.30167349  0.59086533  0.12093385    -0.11500
C998        C  0.27978581  0.59078253  0.13487498    -0.13100
C999        C  0.40250656  0.69957885  0.05126658    -0.11500
C1000       C  0.40230544  0.72162940  0.03816985    -0.13100
C1001       C  0.00379802  0.64379454  0.02387119    -0.11500
C1002       C  0.47712357  0.63127602  0.03597739    -0.13100
C1003       C  0.00863580  0.70401687  0.18087696    -0.11500
C1004       C  0.49209498  0.69606061  0.15965231    -0.13100
C1005       C  0.36989059  0.51361437  0.10785781    -0.11500
C1006       C  0.35615106  0.98669793  0.11957670    -0.13100
C1007       C  0.39859176  0.61157868  0.19856665    -0.11500
C1008       C  0.39834962  0.61130560  0.22390630    -0.13100
O1009       O  0.38380614  0.62405673  0.65559828    -0.80100
C1010       C  0.45056652  0.62027639  0.55678173     0.99300
O1011       O  0.45633354  0.61460945  0.58179902    -0.69200
O1012       O  0.47135330  0.65995730  0.62099940    -0.72800
Al1013     Al  0.43786704  0.61445204  0.61821345     1.49000
C1014       C  0.46794560  0.67866328  0.63823538     0.94500
O1015       O  0.41450016  0.68141250  0.59277088    -0.79000
O1016       O  0.34228378  0.58619782  0.59381560    -0.72600
Al1017     Al  0.39913816  0.65174421  0.62345648     1.90100
O1018       O  0.38455489  0.64355751  0.56036740    -0.71600
O1019       O  0.37883025  0.56019190  0.58059008    -0.71500
O1020       O  0.42326936  0.61835303  0.55050578    -0.77100
O1021       O  0.40904676  0.56812061  0.61858649    -0.75300
O1022       O  0.40736096  0.62314986  0.60490219    -1.11500
O1023       O  0.42500167  0.61329192  0.65693041    -0.70700
C1024       C  0.40176961  0.61535065  0.66880092     1.00100
C1025       C  0.40104203  0.67367161  0.56857900     0.96400
Al1026     Al  0.38410941  0.60359917  0.57358588     1.55600
O1027       O  0.44058387  0.67700871  0.64114519    -0.75300
C1028       C  0.38704328  0.54887627  0.60154025     1.00600
C1029       C  0.33387042  0.60381765  0.60787749     0.95500
O1030       O  0.35440921  0.63390721  0.61188577    -0.80600
O1031       O  0.27063741  0.89482418  0.85037752    -0.80100
C1032       C  0.34123250  0.89948176  0.94937606     0.99300
O1033       O  0.35316664  0.90617707  0.92451158    -0.69200
O1034       O  0.32324052  0.86062086  0.88530307    -0.72800
Al1035     Al  0.33469521  0.90583480  0.88800691     1.49000
C1036       C  0.30091852  0.84144481  0.86829697     0.94500
O1037       O  0.24386842  0.83771081  0.91337603    -0.79000
O1038       O  0.26672734  0.93262342  0.91228357    -0.72600
Al1039     Al  0.25830446  0.86733646  0.88265738     1.90100
O1040       O  0.25129723  0.87533462  0.94566514    -0.71600
O1041       O  0.32951939  0.95913796  0.92601843    -0.71500
O1042       O  0.31545885  0.90066441  0.95566168    -0.77100
O1043       O  0.35155479  0.95196370  0.88754941    -0.75300
O1044       O  0.29512654  0.89630224  0.90126926    -1.11500
O1045       O  0.32299881  0.90662730  0.84916939    -0.70700
C1046       C  0.29750479  0.90404543  0.83721159     1.00100
C1047       C  0.23780950  0.84525972  0.93746954     0.96400
Al1048     Al  0.29113603  0.91546186  0.93264860     1.55600
O1049       O  0.27491990  0.84252966  0.86538604    -0.75300
C1050       C  0.34872797  0.97085526  0.90482293     1.00600
C1051       C  0.24075581  0.91486826  0.89796025     0.95500
O1052       O  0.23119472  0.88482620  0.89394842    -0.80600
O1053       O  0.38627164  0.77896889  0.82191978    -0.80100
C1054       C  0.39086086  0.84959066  0.72294935     0.99300
O1055       O  0.39739330  0.86143682  0.74784208    -0.69200
O1056       O  0.35189942  0.83146067  0.78708539    -0.72800
Al1057     Al  0.39714854  0.84299655  0.78433029     1.49000
C1058       C  0.33280624  0.80919013  0.80416343     0.94500
O1059       O  0.32904480  0.75222840  0.75897924    -0.79000
O1060       O  0.42398848  0.77506931  0.75997076    -0.72600
Al1061     Al  0.35871643  0.76664067  0.78967466     1.90100
O1062       O  0.36667723  0.75974171  0.72663176    -0.71600
O1063       O  0.45056662  0.83784087  0.74636429    -0.71500
O1064       O  0.39213945  0.82388695  0.71665867    -0.77100
O1065       O  0.44331060  0.85996181  0.78473277    -0.75300
O1066       O  0.38767198  0.80346952  0.77105654    -1.11500
O1067       O  0.39803249  0.83129632  0.82316036    -0.70700
C1068       C  0.39549821  0.80581851  0.83509690     1.00100
C1069       C  0.33659029  0.74622687  0.73485619     0.96400
Al1070     Al  0.40685882  0.79951666  0.73966827     1.55600
O1071       O  0.33390574  0.78320873  0.80704550    -0.75300
C1072       C  0.46224576  0.85711265  0.76751707     1.00600
C1073       C  0.40622600  0.74908490  0.77425786     0.95500
O1074       O  0.37618208  0.73954059  0.77831609    -0.80600
O1075       O  0.11757583  0.89417495  0.90530578    -0.80100
C1076       C  0.05086783  0.89849984  0.80670847     0.99300
O1077       O  0.04519259  0.90424558  0.83173480    -0.69200
O1078       O  0.03008084  0.85878557  0.87084788    -0.72800
Al1079     Al  0.06367591  0.90425002  0.86811550     1.49000
C1080       C  0.03343136  0.83996748  0.88799520     0.94500
O1081       O  0.08676603  0.83720269  0.84225194    -0.79000
O1082       O  0.15914184  0.93239545  0.84362879    -0.72600
Al1083     Al  0.10218836  0.86669733  0.87306070     1.90100
O1084       O  0.11691507  0.87522129  0.81003316    -0.71600
O1085       O  0.12263339  0.95850486  0.83045469    -0.71500
O1086       O  0.07813940  0.90039568  0.80036602    -0.77100
O1087       O  0.09260826  0.95057607  0.86857333    -0.75300
O1088       O  0.09407411  0.89546720  0.85468111    -1.11500
O1089       O  0.07658427  0.90523529  0.90679401    -0.70700
C1090       C  0.09973483  0.90296827  0.91859019     1.00100
C1091       C  0.10037654  0.84506779  0.81812329     0.96400
Al1092     Al  0.11733020  0.91510469  0.82338376     1.55600
O1093       O  0.06072305  0.84143011  0.89074472    -0.75300
C1094       C  0.11454423  0.96982476  0.85147605     1.00600
C1095       C  0.16750457  0.91466430  0.85759680     0.95500
O1096       O  0.14693347  0.88454507  0.86146610    -0.80600
O1097       O  0.23072271  0.62354325  0.60042642    -0.80100
C1098       C  0.16007539  0.61898566  0.69938556     0.99300
O1099       O  0.14818775  0.61237062  0.67450486    -0.69200
O1100       O  0.17822216  0.65791863  0.63530153    -0.72800
Al1101     Al  0.16667941  0.61267982  0.63800988     1.49000
C1102       C  0.20051024  0.67701376  0.61822913     0.94500
O1103       O  0.25750120  0.68072005  0.66338507    -0.79000
O1104       O  0.23457772  0.58579791  0.66238491    -0.72600
Al1105     Al  0.24306602  0.65107381  0.63268355     1.90100
O1106       O  0.24995744  0.64309310  0.69573022    -0.71600
O1107       O  0.17179359  0.55927516  0.67597484    -0.71500
O1108       O  0.18579480  0.61771570  0.70568360    -0.77100
O1109       O  0.14976132  0.56654412  0.63754592    -0.75300
O1110       O  0.20621688  0.62214350  0.65129477    -1.11500
O1111       O  0.17839920  0.61186133  0.59917263    -0.70700
C1112       C  0.20387620  0.61436773  0.58723819     1.00100
C1113       C  0.26349375  0.67316836  0.68750900     0.96400
Al1114     Al  0.21014783  0.60295283  0.68268548     1.55600
O1115       O  0.22649687  0.67589931  0.61533454    -0.75300
C1116       C  0.15261860  0.54761207  0.65475371     1.00600
C1117       C  0.26056774  0.60353399  0.64808467     0.95500
O1118       O  0.27014597  0.63357356  0.64403705    -0.80600
O1119       O  0.23118372  0.62536511  0.98909823    -0.80100
C1120       C  0.16090128  0.55902431  0.88989421     0.99300
O1121       O  0.14883005  0.55381916  0.91469485    -0.69200
O1122       O  0.17915060  0.53827988  0.95350654    -0.72800
Al1123     Al  0.16744794  0.57183370  0.95121215     1.49000
C1124       C  0.20160281  0.54156408  0.97035957     0.94500
O1125       O  0.25851212  0.59607140  0.92589944    -0.79000
O1126       O  0.23484429  0.66729185  0.92685173    -0.72600
Al1127     Al  0.24378648  0.61075096  0.95665271     1.90100
O1128       O  0.25075694  0.62591293  0.89355979    -0.71600
O1129       O  0.17202554  0.62993823  0.91318034    -0.71500
O1130       O  0.18677260  0.58610164  0.88363685    -0.77100
O1131       O  0.15054623  0.60097976  0.95198343    -0.75300
O1132       O  0.20694190  0.60239673  0.93800275    -1.11500
O1133       O  0.17906815  0.58391770  0.99009551    -0.70700
C1134       C  0.20438306  0.60704607  0.50221123     1.00100
C1135       C  0.26429332  0.60948367  0.90172464     0.96400
Al1136     Al  0.21074143  0.62547003  0.90658435     1.55600
O1137       O  0.22739569  0.56900200  0.97359531    -0.75300
C1138       C  0.15297788  0.62240382  0.93449527     1.00600
C1139       C  0.26079925  0.67594162  0.94126385     0.95500
O1140       O  0.27052370  0.65570581  0.94554785    -0.80600
O1141       O  0.11703616  0.73973675  0.68305497    -0.80100
C1142       C  0.05049344  0.66966220  0.78231402     0.99300
O1143       O  0.04524327  0.65761241  0.75750859    -0.69200
O1144       O  0.02985534  0.68800985  0.71864434    -0.72800
Al1145     Al  0.06331445  0.67616508  0.72098288     1.49000
C1146       C  0.03321283  0.71041630  0.70170950     0.94500
O1147       O  0.08782087  0.76730272  0.74614828    -0.79000
O1148       O  0.15887163  0.74337288  0.74536864    -0.72600
Al1149     Al  0.10245038  0.75245493  0.71544895     1.90100
O1150       O  0.11752595  0.75944098  0.77856969    -0.71600
O1151       O  0.12138021  0.68061078  0.75903374    -0.71500
O1152       O  0.07760574  0.69549804  0.78855272    -0.77100
O1153       O  0.09236571  0.65914613  0.72025350    -0.75300
O1154       O  0.09396751  0.71561779  0.73416196    -1.11500
O1155       O  0.07543251  0.68771254  0.68209741    -0.70700
C1156       C  0.09862062  0.71296228  0.66996169     1.00100
C1157       C  0.10119177  0.77306006  0.77034171     0.96400
Al1158     Al  0.11700482  0.71937760  0.76560117     1.55600
O1159       O  0.06070150  0.73615502  0.69845791    -0.75300
C1160       C  0.11379033  0.66154407  0.73773314     1.00600
C1161       C  0.16760522  0.76931449  0.73093297     0.95500
O1162       O  0.14741885  0.77908908  0.72657311    -0.80600
O1163       O  0.27036225  0.89302893  0.73903064    -0.80100
C1164       C  0.34083070  0.95966971  0.63997375     0.99300
O1165       O  0.35286175  0.96482993  0.66478992    -0.69200
O1166       O  0.32247154  0.98021501  0.70366436    -0.72800
Al1167     Al  0.33418548  0.94668145  0.70127753     1.49000
C1168       C  0.30001455  0.97686546  0.72054419     0.94500
O1169       O  0.24315022  0.92248395  0.67585004    -0.79000
O1170       O  0.26689514  0.85130844  0.67669972    -0.72600
Al1171     Al  0.25782756  0.90772877  0.70659982     1.90100
O1172       O  0.25099983  0.89274140  0.64347978    -0.71600
O1173       O  0.32970681  0.88869597  0.66314099    -0.71500
O1174       O  0.31499199  0.93259559  0.63366761    -0.77100
O1175       O  0.35109102  0.91754640  0.70199936    -0.75300
O1176       O  0.29472182  0.91615396  0.68799087    -1.11500
O1177       O  0.32248640  0.93445548  0.74012259    -0.70700
C1178       C  0.29713350  0.91131474  0.75218830     1.00100
C1179       C  0.23741405  0.90911908  0.65165713     0.96400
Al1180     Al  0.29100269  0.89317493  0.65652889     1.55600
O1181       O  0.27417261  0.94943278  0.72365077    -0.75300
C1182       C  0.34868329  0.89615487  0.68449462     1.00600
C1183       C  0.24091285  0.84259494  0.69108478     0.95500
O1184       O  0.23114503  0.86279322  0.69540181    -0.80600
O1185       O  0.11500098  0.73928518  0.57176493    -0.80100
C1186       C  0.11048088  0.66875906  0.97280098     0.99300
O1187       O  0.10385144  0.65685174  0.99767411    -0.69200
O1188       O  0.14935978  0.68677311  0.53692534    -0.72800
Al1189     Al  0.10411213  0.67527616  0.53417225     1.49000
C1190       C  0.16846167  0.70903764  0.55400263     0.94500
O1191       O  0.17225145  0.76602947  0.50883593    -0.79000
O1192       O  0.07730732  0.74323482  0.00987213    -0.72600
Al1193     Al  0.14257663  0.75162037  0.53953022     1.90100
O1194       O  0.13462381  0.75860164  0.97651582    -0.71600
O1195       O  0.05073672  0.68047962  0.99619825    -0.71500
O1196       O  0.10920981  0.69447110  0.96651134    -0.77100
O1197       O  0.05795840  0.65837242  0.53459425    -0.75300
O1198       O  0.11361886  0.71481635  0.52090808    -1.11500
O1199       O  0.10324339  0.68695879  0.57300234    -0.70700
C1200       C  0.10577451  0.71243102  0.58493960     1.00100
C1201       C  0.16470849  0.77209614  0.98473672     0.96400
Al1202     Al  0.09444740  0.71880693  0.98952924     1.55600
O1203       O  0.16736034  0.73501712  0.55689716    -0.75300
C1204       C  0.03904115  0.66126005  0.51738495     1.00600
C1205       C  0.09509698  0.76921228  0.52415929     0.95500
O1206       O  0.12514447  0.77874589  0.52816845    -0.80600
O1207       O  0.11586547  0.89234063  0.51671452    -0.80100
C1208       C  0.11177190  0.95915817  0.61535654     0.99300
O1209       O  0.10607481  0.96484069  0.59031685    -0.69200
O1210       O  0.15146151  0.97984827  0.55113482    -0.72800
Al1211     Al  0.10597902  0.94631765  0.55394084     1.49000
C1212       C  0.17021349  0.97646153  0.53393079     0.94500
O1213       O  0.17309952  0.92321840  0.57961990    -0.79000
O1214       O  0.07786089  0.85092277  0.57849504    -0.72600
Al1215     Al  0.14347722  0.90776150  0.54889226     1.90100
O1216       O  0.13517491  0.89321812  0.61196624    -0.71600
O1217       O  0.05176717  0.88740599  0.59167259    -0.71500
O1218       O  0.10992368  0.93192018  0.62169631    -0.77100
O1219       O  0.05964262  0.91743958  0.55357365    -0.75300
O1220       O  0.11477285  0.91593050  0.56735141    -1.11500
O1221       O  0.10487059  0.93336236  0.51526136    -0.70700
C1222       C  0.10705685  0.91018182  0.50345481     1.00100
C1223       C  0.16531607  0.90972793  0.60379743     0.96400
Al1224     Al  0.09520816  0.89273608  0.59868978     1.55600
O1225       O  0.16870777  0.94916800  0.53114885    -0.75300
C1226       C  0.04041545  0.89551925  0.57068597     1.00600
C1227       C  0.09552937  0.84252801  0.56447348     0.95500
O1228       O  0.12565317  0.86306220  0.56053335    -0.80600
O1229       O  0.38580200  0.62596310  0.76689480    -0.80100
C1230       C  0.38997554  0.55942534  0.86565943     0.99300
O1231       O  0.39576479  0.55373885  0.84065515    -0.69200
O1232       O  0.35033002  0.53852935  0.80148218    -0.72800
Al1233     Al  0.39580232  0.57214637  0.80424067     1.49000
C1234       C  0.33153949  0.54184140  0.78426466     0.94500
O1235       O  0.32858008  0.59514481  0.82981709    -0.79000
O1236       O  0.42376593  0.66755952  0.82859973    -0.72600
Al1237     Al  0.35819051  0.61057118  0.79907908     1.90100
O1238       O  0.36649836  0.62528293  0.86211519    -0.71600
O1239       O  0.44996258  0.63119914  0.84187892    -0.71500
O1240       O  0.39180362  0.58666399  0.87195112    -0.77100
O1241       O  0.44213119  0.60112343  0.80382413    -0.75300
O1242       O  0.38694001  0.60251320  0.81757753    -1.11500
O1243       O  0.39685199  0.58497812  0.76553047    -0.70700
C1244       C  0.39462555  0.60811235  0.75367403     1.00100
C1245       C  0.33635941  0.60872296  0.85395740     0.96400
Al1246     Al  0.40648722  0.62579759  0.84887638     1.55600
O1247       O  0.33301382  0.56911458  0.78141698    -0.75300
C1248       C  0.46133894  0.62312796  0.82088342     1.00600
C1249       C  0.40604468  0.67586865  0.81455239     0.95500
O1250       O  0.37593541  0.65527810  0.81063334    -0.80600
O1251       O  0.38460289  0.77868859  0.93329807    -0.80100
C1252       C  0.45118208  0.84926596  0.53230935     0.99300
O1253       O  0.45639444  0.86124441  0.50747269    -0.69200
O1254       O  0.47181357  0.83085262  0.96864253    -0.72800
Al1255     Al  0.43825299  0.84255541  0.97099913     1.49000
C1256       C  0.46847921  0.80840238  0.95177935     0.94500
O1257       O  0.41409688  0.75162402  0.99656157    -0.79000
O1258       O  0.34280038  0.77524968  0.49554555    -0.72600
Al1259     Al  0.39932128  0.76622297  0.96576319     1.90100
O1260       O  0.38426912  0.75946682  0.52886660    -0.71600
O1261       O  0.38015863  0.83807589  0.50905637    -0.71500
O1262       O  0.42407755  0.82346075  0.53862645    -0.77100
O1263       O  0.40912213  0.85948674  0.97024543    -0.75300
O1264       O  0.40770796  0.80311989  0.98431415    -1.11500
O1265       O  0.42601344  0.83081082  0.93216405    -0.70700
C1266       C  0.40287274  0.80544530  0.92011877     1.00100
C1267       C  0.40066803  0.74588248  0.52073483     0.96400
Al1268     Al  0.38467118  0.79941818  0.51574415     1.55600
O1269       O  0.44104372  0.78255779  0.94870099    -0.75300
C1270       C  0.38769244  0.85708449  0.98772139     1.00600
C1271       C  0.33412357  0.74924864  0.98121756     0.95500
O1272       O  0.35436781  0.73951801  0.97697023    -0.80600
C1273       C  0.47819668  0.86460152  0.55271758    -0.11500
C1274       C  0.00513148  0.87835455  0.56441577    -0.13100
C1275       C  0.08257680  0.81036803  0.55137253    -0.11500
C1276       C  0.08241435  0.78846836  0.53740409    -0.13100
C1277       C  0.21319542  0.91084294  0.63423385    -0.11500
C1278       C  0.19119265  0.91113816  0.62112704    -0.13100
C1279       C  0.31429607  0.51775261  0.76277234    -0.11500
C1280       C  0.30642739  0.00133144  0.74148261    -0.13100
C1281       C  0.22184791  0.81032665  0.70406706    -0.11500
C1282       C  0.19988825  0.78835281  0.71795220    -0.13100
C1283       C  0.10145213  0.71208805  0.64011147    -0.11500
C1284       C  0.10178493  0.71182071  0.61474277    -0.13100
C1285       C  0.02352565  0.65432131  0.80278018    -0.11500
C1286       C  0.49661568  0.64045415  0.81453081    -0.13100
C1287       C  0.30185864  0.73012700  0.96820914    -0.11500
C1288       C  0.27989574  0.70817589  0.95430569    -0.13100
C1289       C  0.31048615  0.60737596  0.87124017    -0.11500
C1290       C  0.28849834  0.60773435  0.88431236    -0.13100
C1291       C  0.13503235  0.63963703  0.94064548    -0.11500
C1292       C  0.12199975  0.65344483  0.95231583    -0.13100
C1293       C  0.19524079  0.51695943  0.99113404    -0.11500
C1294       C  0.18743124  0.00048801  0.51239114    -0.13100
C1295       C  0.13517994  0.51239413  0.64822824    -0.11500
C1296       C  0.12271136  0.98573739  0.63611846    -0.13100
C1297       C  0.20327046  0.61036164  0.55743095    -0.11500
C1298       C  0.20352901  0.60995238  0.53206042    -0.13100
C1299       C  0.18571821  0.70226224  0.57537963    -0.11500
C1300       C  0.19373800  0.69426019  0.59684446    -0.13100
C1301       C  0.14474407  0.63049235  0.71987348    -0.11500
C1302       C  0.13096900  0.64354480  0.73157267    -0.13100
C1303       C  0.09947864  0.79730508  0.78771627    -0.11500
C1304       C  0.09910076  0.81927527  0.80078637    -0.13100
C1305       C  0.00937437  0.82269907  0.90952358    -0.11500
C1306       C  0.49295398  0.81481981  0.93082472    -0.13100
C1307       C  0.13175938  0.50509214  0.85778798    -0.11500
C1308       C  0.14556923  0.53202633  0.86947384    -0.13100
C1309       C  0.10297966  0.90664598  0.94835671    -0.11500
C1310       C  0.10328602  0.90691495  0.97369534    -0.13100
C1311       C  0.41895936  0.72984724  0.78745321    -0.11500
C1312       C  0.41890544  0.70799604  0.80141399    -0.13100
C1313       C  0.31045222  0.72163765  0.71765396    -0.11500
C1314       C  0.28809332  0.69928751  0.70471712    -0.13100
C1315       C  0.49750395  0.87472082  0.77394350    -0.11500
C1316       C  0.02422252  0.88738881  0.78598355    -0.13100
C1317       C  0.39951400  0.80642597  0.86490035    -0.11500
C1318       C  0.39991829  0.80619588  0.89027011    -0.13100
C1319       C  0.36654713  0.87885326  0.69068624    -0.11500
C1320       C  0.37947037  0.86497803  0.70242205    -0.13100
C1321       C  0.19966566  0.92752208  0.87071697    -0.11500
C1322       C  0.22153072  0.92758977  0.88469108    -0.13100
C1323       C  0.19084071  0.79674666  0.96757189    -0.11500
C1324       C  0.21319729  0.81913439  0.95466389    -0.13100
C1325       C  0.30763234  0.82407214  0.84700348    -0.11500
C1326       C  0.31558535  0.81597802  0.82555816    -0.13100
C1327       C  0.35659699  0.88800084  0.96985298    -0.11500
C1328       C  0.37044231  0.87500793  0.98153262    -0.13100
C1329       C  0.36628178  0.50610442  0.89842953    -0.11500
C1330       C  0.37890010  0.53282149  0.88640968    -0.13100
C1331       C  0.29790132  0.90838786  0.78203624    -0.11500
C1332       C  0.29812163  0.90801253  0.80740459    -0.13100
C1333       C  0.30167347  0.59086534  0.62093387    -0.11500
C1334       C  0.27978578  0.59078253  0.63487504    -0.13100
C1335       C  0.40250655  0.69957881  0.55126654    -0.11500
C1336       C  0.40230542  0.72162940  0.53816978    -0.13100
C1337       C  0.00379802  0.64379461  0.52387122    -0.11500
C1338       C  0.47712359  0.63127604  0.53597736    -0.13100
C1339       C  0.00863581  0.70401685  0.68087694    -0.11500
C1340       C  0.49209499  0.69606061  0.65965226    -0.13100
C1341       C  0.36989057  0.51361436  0.60785788    -0.11500
C1342       C  0.35615102  0.98669793  0.61957668    -0.13100
C1343       C  0.39859174  0.61157868  0.69856665    -0.11500
C1344       C  0.39834960  0.61130557  0.72390626    -0.13100
O1345       O  0.88380609  0.12405673  0.15559830    -0.80100
C1346       C  0.95056648  0.12027637  0.05678172     0.99300
O1347       O  0.95633350  0.11460941  0.08179907    -0.69200
O1348       O  0.97135329  0.15995727  0.12099944    -0.72800
Al1349     Al  0.93786701  0.11445204  0.11821346     1.49000
C1350       C  0.96794558  0.17866325  0.13823539     0.94500
O1351       O  0.91450009  0.18141245  0.09277093    -0.79000
O1352       O  0.84228377  0.08619787  0.09381552    -0.72600
Al1353     Al  0.89913811  0.15174420  0.12345649     1.90100
O1354       O  0.88455489  0.14355750  0.06036740    -0.71600
O1355       O  0.87883020  0.06019188  0.08059002    -0.71500
O1356       O  0.92326932  0.11835299  0.05050582    -0.77100
O1357       O  0.90904671  0.06812063  0.11858645    -0.75300
O1358       O  0.90736092  0.12314985  0.10490219    -1.11500
O1359       O  0.92500168  0.11329200  0.15693042    -0.70700
C1360       C  0.90176962  0.11535076  0.16880099     1.00100
C1361       C  0.90104200  0.17367158  0.06857906     0.96400
Al1362     Al  0.88410939  0.10359917  0.07358586     1.55600
O1363       O  0.94058384  0.17700870  0.14114517    -0.75300
C1364       C  0.88704325  0.04887626  0.10154018     1.00600
C1365       C  0.83387044  0.10381772  0.10787747     0.95500
O1366       O  0.85440919  0.13390723  0.11188574    -0.80600
O1367       O  0.77063736  0.39482416  0.35037755    -0.80100
C1368       C  0.84123253  0.39948181  0.44937605     0.99300
O1369       O  0.85316666  0.40617708  0.42451155    -0.69200
O1370       O  0.82324048  0.36062085  0.38530308    -0.72800
Al1371     Al  0.83469519  0.40583479  0.38800687     1.49000
C1372       C  0.80091849  0.34144481  0.36829697     0.94500
O1373       O  0.74386852  0.33771079  0.41337606    -0.79000
O1374       O  0.76672732  0.43262339  0.41228359    -0.72600
Al1375     Al  0.75830445  0.36733643  0.38265741     1.90100
O1376       O  0.75129724  0.37533460  0.44566516    -0.71600
O1377       O  0.82951948  0.45913792  0.42601841    -0.71500
O1378       O  0.81545890  0.40066449  0.45566167    -0.77100
O1379       O  0.85155479  0.45196370  0.38754931    -0.75300
O1380       O  0.79512654  0.39630222  0.40126924    -1.11500
O1381       O  0.82299875  0.40662723  0.34916935    -0.70700
C1382       C  0.79750472  0.40404538  0.33721163     1.00100
C1383       C  0.73780951  0.34525970  0.43746957     0.96400
Al1384     Al  0.79113606  0.41546186  0.43264860     1.55600
O1385       O  0.77491988  0.34252964  0.36538601    -0.75300
C1386       C  0.84872804  0.47085525  0.40482292     1.00600
C1387       C  0.74075579  0.41486820  0.39796031     0.95500
O1388       O  0.73119468  0.38482614  0.39394851    -0.80600
O1389       O  0.88627168  0.27896886  0.32191978    -0.80100
C1390       C  0.89086091  0.34959068  0.22294940     0.99300
O1391       O  0.89739338  0.36143685  0.24784214    -0.69200
O1392       O  0.85189941  0.33146058  0.28708535    -0.72800
Al1393     Al  0.89714854  0.34299650  0.28433030     1.49000
C1394       C  0.83280626  0.30919008  0.30416346     0.94500
O1395       O  0.82904476  0.25222838  0.25897922    -0.79000
O1396       O  0.92398841  0.27506920  0.25997067    -0.72600
Al1397     Al  0.85871642  0.26664063  0.28967465     1.90100
O1398       O  0.86667717  0.25974168  0.22663173    -0.71600
O1399       O  0.95056662  0.33784079  0.24636432    -0.71500
O1400       O  0.89213947  0.32388700  0.21665868    -0.77100
O1401       O  0.94331059  0.35996176  0.28473278    -0.75300
O1402       O  0.88767197  0.30346948  0.27105652    -1.11500
O1403       O  0.89803243  0.33129624  0.32316037    -0.70700
C1404       C  0.89549819  0.30581846  0.33509689     1.00100
C1405       C  0.83659023  0.24622681  0.23485614     0.96400
Al1406     Al  0.90685879  0.29951661  0.23966823     1.55600
O1407       O  0.83390574  0.28320869  0.30704552    -0.75300
C1408       C  0.96224577  0.35711259  0.26751703     1.00600
C1409       C  0.90622595  0.24908485  0.27425783     0.95500
O1410       O  0.87618203  0.23954055  0.27831608    -0.80600
O1411       O  0.61757582  0.39417496  0.40530572    -0.80100
C1412       C  0.55086785  0.39849982  0.30670841     0.99300
O1413       O  0.54519259  0.40424556  0.33173473    -0.69200
O1414       O  0.53008087  0.35878566  0.37084791    -0.72800
Al1415     Al  0.56367593  0.40425005  0.36811547     1.49000
C1416       C  0.53343135  0.33996758  0.38799528     0.94500
O1417       O  0.58676596  0.33720262  0.34225195    -0.79000
O1418       O  0.65914183  0.43239540  0.34362878    -0.72600
Al1419     Al  0.60218833  0.36669731  0.37306070     1.90100
O1420       O  0.61691505  0.37522124  0.31003319    -0.71600
O1421       O  0.62263346  0.45850491  0.33045471    -0.71500
O1422       O  0.57813941  0.40039567  0.30036598    -0.77100
O1423       O  0.59260825  0.45057608  0.36857329    -0.75300
O1424       O  0.59407411  0.39546720  0.35468109    -1.11500
O1425       O  0.57658428  0.40523533  0.40679399    -0.70700
C1426       C  0.59973482  0.40296826  0.41859014     1.00100
C1427       C  0.60037650  0.34506777  0.31812325     0.96400
Al1428     Al  0.61733022  0.41510468  0.32338375     1.55600
O1429       O  0.56072306  0.34143018  0.39074478    -0.75300
C1430       C  0.61454425  0.46982477  0.35147600     1.00600
C1431       C  0.66750452  0.41466424  0.35759685     0.95500
O1432       O  0.64693343  0.38454503  0.36146614    -0.80600
O1433       O  0.73072276  0.12354318  0.10042641    -0.80100
C1434       C  0.66007538  0.11898561  0.19938557     0.99300
O1435       O  0.64818773  0.11237059  0.17450482    -0.69200
O1436       O  0.67822220  0.15791862  0.13530146    -0.72800
Al1437     Al  0.66667945  0.11267982  0.13800983     1.49000
C1438       C  0.70051033  0.17701374  0.11822905     0.94500
O1439       O  0.75750120  0.18072005  0.16338498    -0.79000
O1440       O  0.73457770  0.08579791  0.16238480    -0.72600
Al1441     Al  0.74306607  0.15107380  0.13268350     1.90100
O1442       O  0.74995741  0.14309308  0.19573014    -0.71600
O1443       O  0.67179360  0.05927519  0.17597475    -0.71500
O1444       O  0.68579478  0.11771567  0.20568356    -0.77100
O1445       O  0.64976133  0.06654414  0.13754583    -0.75300
O1446       O  0.70621691  0.12214350  0.15129473    -1.11500
O1447       O  0.67839928  0.11186135  0.09917261    -0.70700
C1448       C  0.70387624  0.11436774  0.08723822     1.00100
C1449       C  0.76349373  0.17316835  0.18750892     0.96400
Al1450     Al  0.71014784  0.10295282  0.18268541     1.55600
O1451       O  0.72649687  0.17589925  0.11533442    -0.75300
C1452       C  0.65261861  0.04761214  0.15475361     1.00600
C1453       C  0.76056779  0.10353406  0.14808460     0.95500
O1454       O  0.77014605  0.13357363  0.14403711    -0.80600
O1455       O  0.73118367  0.12536513  0.48909826    -0.80100
C1456       C  0.66090125  0.05902432  0.38989424     0.99300
O1457       O  0.64883004  0.05381922  0.41469486    -0.69200
O1458       O  0.67915067  0.03827984  0.45350653    -0.72800
Al1459     Al  0.66744798  0.07183371  0.45121218     1.49000
C1460       C  0.70160285  0.04156407  0.47035962     0.94500
O1461       O  0.75851214  0.09607141  0.42589948    -0.79000
O1462       O  0.73484424  0.16729181  0.42685180    -0.72600
Al1463     Al  0.74378648  0.11075097  0.45665276     1.90100
O1464       O  0.75075692  0.12591288  0.39355979    -0.71600
O1465       O  0.67202554  0.12993821  0.41318038    -0.71500
O1466       O  0.68677260  0.08610162  0.38363684    -0.77100
O1467       O  0.65054638  0.10097987  0.45198356    -0.75300
O1468       O  0.70694191  0.10239671  0.43800278    -1.11500
O1469       O  0.67906815  0.08391763  0.49009554    -0.70700
C1470       C  0.70438304  0.10704601  0.00221120     1.00100
C1471       C  0.76429330  0.10948362  0.40172467     0.96400
Al1472     Al  0.71074142  0.12547000  0.40658437     1.55600
O1473       O  0.72739568  0.06900203  0.47359541    -0.75300
C1474       C  0.65297797  0.12240389  0.43449535     1.00600
C1475       C  0.76079923  0.17594158  0.44126392     0.95500
O1476       O  0.77052370  0.15570580  0.44554782    -0.80600
O1477       O  0.61703611  0.23973671  0.18305502    -0.80100
C1478       C  0.55049348  0.16966226  0.28231405     0.99300
O1479       O  0.54524324  0.15761242  0.25750858    -0.69200
O1480       O  0.52985532  0.18800976  0.21864429    -0.72800
Al1481     Al  0.56331443  0.17616504  0.22098287     1.49000
C1482       C  0.53321282  0.21041625  0.20170954     0.94500
O1483       O  0.58782079  0.26730264  0.24614831    -0.79000
O1484       O  0.65887166  0.24337290  0.24536871    -0.72600
Al1485     Al  0.60245033  0.25245487  0.21544899     1.90100
O1486       O  0.61752592  0.25944096  0.27856971    -0.71600
O1487       O  0.62138029  0.18061085  0.25903370    -0.71500
O1488       O  0.57760571  0.19549801  0.28855274    -0.77100
O1489       O  0.59236567  0.15914610  0.22025353    -0.75300
O1490       O  0.59396748  0.21561775  0.23416197    -1.11500
O1491       O  0.57543249  0.18771250  0.18209736    -0.70700
C1492       C  0.59862057  0.21296227  0.16996173     1.00100
C1493       C  0.60119173  0.27306002  0.27034174     0.96400
Al1494     Al  0.61700483  0.21937761  0.26560119     1.55600
O1495       O  0.56070146  0.23615499  0.19845798    -0.75300
C1496       C  0.61379041  0.16154415  0.23773317     1.00600
C1497       C  0.66760519  0.26931444  0.23093298     0.95500
O1498       O  0.64741881  0.27908900  0.22657310    -0.80600
O1499       O  0.77036224  0.39302900  0.23903070    -0.80100
C1500       C  0.84083073  0.45966971  0.13997371     0.99300
O1501       O  0.85286175  0.46482988  0.16478992    -0.69200
O1502       O  0.82247159  0.48021504  0.20366435    -0.72800
Al1503     Al  0.83418549  0.44668145  0.20127754     1.49000
C1504       C  0.80001453  0.47686548  0.22054418     0.94500
O1505       O  0.74315016  0.42248388  0.17585010    -0.79000
O1506       O  0.76689514  0.35130845  0.17669977    -0.72600
Al1507     Al  0.75782756  0.40772879  0.20659986     1.90100
O1508       O  0.75099981  0.39274137  0.14347984    -0.71600
O1509       O  0.82970683  0.38869602  0.16314099    -0.71500
O1510       O  0.81499199  0.43259557  0.13366758    -0.77100
O1511       O  0.85109099  0.41754639  0.20199940    -0.75300
O1512       O  0.79472182  0.41615398  0.18799089    -1.11500
O1513       O  0.82248642  0.43445549  0.24012264    -0.70700
C1514       C  0.79713348  0.41131476  0.25218834     1.00100
C1515       C  0.73741399  0.40911903  0.15165718     0.96400
Al1516     Al  0.79100269  0.39317494  0.15652890     1.55600
O1517       O  0.77417263  0.44943282  0.22365073    -0.75300
C1518       C  0.84868326  0.39615488  0.18449466     1.00600
C1519       C  0.74091295  0.34259498  0.19108479     0.95500
O1520       O  0.73114505  0.36279323  0.19540189    -0.80600
O1521       O  0.61500110  0.23928524  0.07176496    -0.80100
C1522       C  0.61048087  0.16875908  0.47280094     0.99300
O1523       O  0.60385148  0.15685179  0.49767409    -0.69200
O1524       O  0.64935977  0.18677309  0.03692528    -0.72800
Al1525     Al  0.60411212  0.17527615  0.03417224     1.49000
C1526       C  0.66846161  0.20903761  0.05400255     0.94500
O1527       O  0.67225145  0.26602940  0.00883593    -0.79000
O1528       O  0.57730744  0.24323488  0.50987216    -0.72600
Al1529     Al  0.64257666  0.25162038  0.03953019     1.90100
O1530       O  0.63462386  0.25860160  0.47651587    -0.71600
O1531       O  0.55073677  0.18047963  0.49619823    -0.71500
O1532       O  0.60920985  0.19447111  0.46651129    -0.77100
O1533       O  0.55795844  0.15837238  0.03459427    -0.75300
O1534       O  0.61361884  0.21481636  0.02090808    -1.11500
O1535       O  0.60324336  0.18695879  0.07300234    -0.70700
C1536       C  0.60577454  0.21243103  0.08493956     1.00100
C1537       C  0.66470848  0.27209609  0.48473670     0.96400
Al1538     Al  0.59444745  0.21880695  0.48952925     1.55600
O1539       O  0.66736032  0.23501708  0.05689709    -0.75300
C1540       C  0.53904113  0.16126003  0.01738492     1.00600
C1541       C  0.59509698  0.26921227  0.02415926     0.95500
O1542       O  0.62514449  0.27874594  0.02816841    -0.80600
O1543       O  0.61586546  0.39234058  0.01671456    -0.80100
C1544       C  0.61177194  0.45915816  0.11535650     0.99300
O1545       O  0.60607489  0.46484064  0.09031687    -0.69200
O1546       O  0.65146151  0.47984827  0.05113478    -0.72800
Al1547     Al  0.60597905  0.44631763  0.05394088     1.49000
C1548       C  0.67021348  0.47646150  0.03393073     0.94500
O1549       O  0.67309950  0.42321837  0.07961995    -0.79000
O1550       O  0.57786086  0.35092272  0.07849509    -0.72600
Al1551     Al  0.64347722  0.40776147  0.04889230     1.90100
O1552       O  0.63517488  0.39321804  0.11196627    -0.71600
O1553       O  0.55176715  0.38740593  0.09167263    -0.71500
O1554       O  0.60992372  0.43192015  0.12169638    -0.77100
O1555       O  0.55964263  0.41743958  0.05357373    -0.75300
O1556       O  0.61477285  0.41593046  0.06735145    -1.11500
O1557       O  0.60487064  0.43336234  0.01526142    -0.70700
C1558       C  0.60705685  0.41018186  0.00345488     1.00100
C1559       C  0.66531607  0.40972790  0.10379746     0.96400
Al1560     Al  0.59520816  0.39273603  0.09868982     1.55600
O1561       O  0.66870777  0.44916797  0.03114887    -0.75300
C1562       C  0.54041546  0.39551924  0.07068605     1.00600
C1563       C  0.59552941  0.34252800  0.06447347     0.95500
O1564       O  0.62565314  0.36306215  0.06053341    -0.80600
O1565       O  0.88580208  0.12596323  0.26689486    -0.80100
C1566       C  0.88997553  0.05942534  0.36565946     0.99300
O1567       O  0.89576472  0.05373880  0.34065514    -0.69200
O1568       O  0.85033001  0.03852941  0.30148214    -0.72800
Al1569     Al  0.89580231  0.07214638  0.30424066     1.49000
C1570       C  0.83153951  0.04184152  0.28426463     0.94500
O1571       O  0.82858006  0.09514485  0.32981706    -0.79000
O1572       O  0.92376593  0.16755953  0.32859971    -0.72600
Al1573     Al  0.85819052  0.11057125  0.29907909     1.90100
O1574       O  0.86649835  0.12528287  0.36211518    -0.71600
O1575       O  0.94996260  0.13119918  0.34187889    -0.71500
O1576       O  0.89180370  0.08666400  0.37195115    -0.77100
O1577       O  0.94213121  0.10112339  0.30382417    -0.75300
O1578       O  0.88694001  0.10251321  0.31757754    -1.11500
O1579       O  0.89685198  0.08497818  0.26553046    -0.70700
C1580       C  0.89462560  0.10811249  0.25367405     1.00100
C1581       C  0.83635937  0.10872291  0.35395737     0.96400
Al1582     Al  0.90648724  0.12579760  0.34887638     1.55600
O1583       O  0.83301383  0.06911468  0.28141697    -0.75300
C1584       C  0.96133895  0.12312797  0.32088341     1.00600
C1585       C  0.90604466  0.17586866  0.31455245     0.95500
O1586       O  0.87593538  0.15527813  0.31063341    -0.80600
O1587       O  0.88460285  0.27868856  0.43329804    -0.80100
C1588       C  0.95118208  0.34926599  0.03230936     0.99300
O1589       O  0.95639458  0.36124441  0.00747268    -0.69200
O1590       O  0.97181352  0.33085257  0.46864255    -0.72800
Al1591     Al  0.93825300  0.34255545  0.47099913     1.49000
C1592       C  0.96847919  0.30840236  0.45177934     0.94500
O1593       O  0.91409693  0.25162405  0.49656150    -0.79000
O1594       O  0.84280040  0.27524963  0.99554551    -0.72600
Al1595     Al  0.89932127  0.26622297  0.46576316     1.90100
O1596       O  0.88426914  0.25946681  0.02886664    -0.71600
O1597       O  0.88015865  0.33807597  0.00905633    -0.71500
O1598       O  0.92407756  0.32346089  0.03862649    -0.77100
O1599       O  0.90912221  0.35948691  0.47024553    -0.75300
O1600       O  0.90770793  0.30311991  0.48431412    -1.11500
O1601       O  0.92601339  0.33081082  0.43216401    -0.70700
C1602       C  0.90287270  0.30544528  0.42011875     1.00100
C1603       C  0.90066807  0.24588249  0.02073483     0.96400
Al1604     Al  0.88467119  0.29941823  0.01574415     1.55600
O1605       O  0.94104367  0.28255779  0.44870093    -0.75300
C1606       C  0.88769246  0.35708459  0.48772144     1.00600
C1607       C  0.83412355  0.24924858  0.48121756     0.95500
O1608       O  0.85436783  0.23951801  0.47697025    -0.80600
C1609       C  0.97819672  0.36460165  0.05271766    -0.11500
C1610       C  0.50513146  0.37835458  0.06441581    -0.13100
C1611       C  0.58257676  0.31036801  0.05137252    -0.11500
C1612       C  0.58241432  0.28846832  0.03740412    -0.13100
C1613       C  0.71319539  0.41084290  0.13423391    -0.11500
C1614       C  0.69119261  0.41113811  0.12112708    -0.13100
C1615       C  0.81429613  0.01775276  0.26277223    -0.11500
C1616       C  0.80642738  0.50133149  0.24148257    -0.13100
C1617       C  0.72184787  0.31032659  0.20406710    -0.11500
C1618       C  0.69988827  0.28835282  0.21795216    -0.13100
C1619       C  0.60145215  0.21208815  0.14011143    -0.11500
C1620       C  0.60178491  0.21182074  0.11474281    -0.13100
C1621       C  0.52352562  0.15432128  0.30278018    -0.11500
C1622       C  0.99661569  0.14045418  0.31453081    -0.13100
C1623       C  0.80185866  0.23012695  0.46820920    -0.11500
C1624       C  0.77989567  0.20817580  0.45430577    -0.13100
C1625       C  0.81048612  0.10737587  0.37124019    -0.11500
C1626       C  0.78849832  0.10773427  0.38431238    -0.13100
C1627       C  0.63503235  0.13963700  0.44064552    -0.11500
C1628       C  0.62199967  0.15344478  0.45231581    -0.13100
C1629       C  0.69524088  0.01695943  0.49113410    -0.11500
C1630       C  0.68743125  0.50048797  0.01239105    -0.13100
C1631       C  0.63517994  0.01239415  0.14822817    -0.11500
C1632       C  0.62271137  0.48573739  0.13611841    -0.13100
C1633       C  0.70327049  0.11036165  0.05743092    -0.11500
C1634       C  0.70352898  0.10995233  0.03206041    -0.13100
C1635       C  0.68571817  0.20226222  0.07537963    -0.11500
C1636       C  0.69373802  0.19426026  0.09684440    -0.13100
C1637       C  0.64474403  0.13049229  0.21987348    -0.11500
C1638       C  0.63096902  0.14354483  0.23157266    -0.13100
C1639       C  0.59947860  0.29730505  0.28771624    -0.11500
C1640       C  0.59910069  0.31927526  0.30078634    -0.13100
C1641       C  0.50937439  0.32269919  0.40952360    -0.11500
C1642       C  0.99295396  0.31481977  0.43082476    -0.13100
C1643       C  0.63175933  0.00509211  0.35778800    -0.11500
C1644       C  0.64556917  0.03202629  0.36947386    -0.13100
C1645       C  0.60297965  0.40664593  0.44835666    -0.11500
C1646       C  0.60328602  0.40691492  0.47369528    -0.13100
C1647       C  0.91895932  0.22984722  0.28745324    -0.11500
C1648       C  0.91890538  0.20799607  0.30141405    -0.13100
C1649       C  0.81045217  0.22163760  0.21765395    -0.11500
C1650       C  0.78809327  0.19928747  0.20471705    -0.13100
C1651       C  0.99750396  0.37472081  0.27394345    -0.11500
C1652       C  0.52422252  0.38738878  0.28598346    -0.13100
C1653       C  0.89951395  0.30642591  0.36490036    -0.11500
C1654       C  0.89991824  0.30619584  0.39027008    -0.13100
C1655       C  0.86654709  0.37885326  0.19068631    -0.11500
C1656       C  0.87947039  0.36497812  0.20242216    -0.13100
C1657       C  0.69966562  0.42752204  0.37071702    -0.11500
C1658       C  0.72153069  0.42758973  0.38469109    -0.13100
C1659       C  0.69084068  0.29674659  0.46757187    -0.11500
C1660       C  0.71319724  0.31913435  0.45466385    -0.13100
C1661       C  0.80763239  0.32407216  0.34700351    -0.11500
C1662       C  0.81558546  0.31597805  0.32555820    -0.13100
C1663       C  0.85659696  0.38800086  0.46985298    -0.11500
C1664       C  0.87044226  0.37500794  0.48153269    -0.13100
C1665       C  0.86628179  0.00610438  0.39842948    -0.11500
C1666       C  0.87890006  0.03282146  0.38640967    -0.13100
C1667       C  0.79790128  0.40838783  0.28203631    -0.11500
C1668       C  0.79812154  0.40801247  0.30740459    -0.13100
C1669       C  0.80167351  0.09086535  0.12093387    -0.11500
C1670       C  0.77978581  0.09078257  0.13487499    -0.13100
C1671       C  0.90250655  0.19957882  0.05126659    -0.11500
C1672       C  0.90230547  0.22162937  0.03816985    -0.13100
C1673       C  0.50379811  0.14379463  0.02387123    -0.11500
C1674       C  0.97712354  0.13127604  0.03597740    -0.13100
C1675       C  0.50863577  0.20401682  0.18087695    -0.11500
C1676       C  0.99209492  0.19606057  0.15965230    -0.13100
C1677       C  0.86989058  0.01361440  0.10785783    -0.11500
C1678       C  0.85615103  0.48669791  0.11957669    -0.13100
C1679       C  0.89859185  0.11157889  0.19856667    -0.11500
C1680       C  0.89834969  0.11130577  0.22390632    -0.13100
O1681       O  0.88380608  0.12405670  0.65559828    -0.80100
C1682       C  0.95056648  0.12027636  0.55678173     0.99300
O1683       O  0.95633349  0.11460941  0.58179902    -0.69200
O1684       O  0.97135331  0.15995725  0.62099941    -0.72800
Al1685     Al  0.93786700  0.11445202  0.61821345     1.49000
C1686       C  0.96794558  0.17866323  0.63823539     0.94500
O1687       O  0.91450010  0.18141247  0.59277089    -0.79000
O1688       O  0.84228378  0.08619785  0.59381558    -0.72600
Al1689     Al  0.89913813  0.15174419  0.62345649     1.90100
O1690       O  0.88455487  0.14355748  0.56036739    -0.71600
O1691       O  0.87883022  0.06019189  0.58059007    -0.71500
O1692       O  0.92326931  0.11835299  0.55050577    -0.77100
O1693       O  0.90904671  0.06812063  0.61858650    -0.75300
O1694       O  0.90736093  0.12314985  0.60490219    -1.11500
O1695       O  0.92500161  0.11329189  0.65693042    -0.70700
C1696       C  0.90176954  0.11535062  0.66880092     1.00100
C1697       C  0.90104198  0.17367157  0.56857901     0.96400
Al1698     Al  0.88410939  0.10359916  0.57358587     1.55600
O1699       O  0.94058389  0.17700868  0.64114519    -0.75300
C1700       C  0.88704324  0.04887628  0.60154024     1.00600
C1701       C  0.83387038  0.10381763  0.60787750     0.95500
O1702       O  0.85440918  0.13390722  0.61188578    -0.80600
O1703       O  0.77063732  0.39482412  0.85037752    -0.80100
C1704       C  0.84123245  0.39948171  0.94937605     0.99300
O1705       O  0.85316660  0.40617704  0.92451157    -0.69200
O1706       O  0.82324050  0.36062089  0.88530304    -0.72800
Al1707     Al  0.83469517  0.40583479  0.88800689     1.49000
C1708       C  0.80091846  0.34144480  0.86829696     0.94500
O1709       O  0.74386849  0.33771078  0.91337611    -0.79000
O1710       O  0.76672733  0.43262340  0.91228356    -0.72600
Al1711     Al  0.75830443  0.36733641  0.88265742     1.90100
O1712       O  0.75129718  0.37533462  0.94566514    -0.71600
O1713       O  0.82951949  0.45913792  0.92601847    -0.71500
O1714       O  0.81545879  0.40066434  0.95566167    -0.77100
O1715       O  0.85155476  0.45196370  0.88754937    -0.75300
O1716       O  0.79512651  0.39630222  0.90126925    -1.11500
O1717       O  0.82299874  0.40662728  0.84916938    -0.70700
C1718       C  0.79750471  0.40404538  0.83721159     1.00100
C1719       C  0.73780949  0.34525970  0.93746957     0.96400
Al1720     Al  0.79113603  0.41546183  0.93264861     1.55600
O1721       O  0.77491985  0.34252962  0.86538607    -0.75300
C1722       C  0.84872803  0.47085524  0.90482293     1.00600
C1723       C  0.74075577  0.41486822  0.89796027     0.95500
O1724       O  0.73119467  0.38482615  0.89394846    -0.80600
O1725       O  0.88627169  0.27896889  0.82191977    -0.80100
C1726       C  0.89086095  0.34959068  0.72294933     0.99300
O1727       O  0.89739338  0.36143686  0.74784208    -0.69200
O1728       O  0.85189938  0.33146070  0.78708537    -0.72800
Al1729     Al  0.89714852  0.34299654  0.78433028     1.49000
C1730       C  0.83280624  0.30919021  0.80416341     0.94500
O1731       O  0.82904474  0.25222838  0.75897925    -0.79000
O1732       O  0.92398841  0.27506926  0.75997076    -0.72600
Al1733     Al  0.85871640  0.26664066  0.78967467     1.90100
O1734       O  0.86667716  0.25974170  0.72663176    -0.71600
O1735       O  0.95056663  0.33784083  0.74636431    -0.71500
O1736       O  0.89213949  0.32388701  0.71665864    -0.77100
O1737       O  0.94331057  0.35996179  0.78473276    -0.75300
O1738       O  0.88767195  0.30346951  0.77105652    -1.11500
O1739       O  0.89803241  0.33129626  0.82316035    -0.70700
C1740       C  0.89549819  0.30581849  0.83509690     1.00100
C1741       C  0.83659022  0.24622684  0.73485620     0.96400
Al1742     Al  0.90685880  0.29951664  0.73966826     1.55600
O1743       O  0.83390577  0.28320880  0.80704553    -0.75300
C1744       C  0.96224576  0.35711268  0.76751709     1.00600
C1745       C  0.90622592  0.24908485  0.77425785     0.95500
O1746       O  0.87618200  0.23954055  0.77831607    -0.80600
O1747       O  0.61757580  0.39417494  0.90530578    -0.80100
C1748       C  0.55086783  0.39849983  0.80670845     0.99300
O1749       O  0.54519262  0.40424559  0.83173476    -0.69200
O1750       O  0.53008091  0.35878563  0.87084783    -0.72800
Al1751     Al  0.56367594  0.40425006  0.86811547     1.49000
C1752       C  0.53343137  0.33996760  0.88799521     0.94500
O1753       O  0.58676596  0.33720266  0.84225193    -0.79000
O1754       O  0.65914181  0.43239542  0.84362879    -0.72600
Al1755     Al  0.60218833  0.36669732  0.87306070     1.90100
O1756       O  0.61691505  0.37522128  0.81003317    -0.71600
O1757       O  0.62263341  0.45850491  0.83045468    -0.71500
O1758       O  0.57813939  0.40039568  0.80036597    -0.77100
O1759       O  0.59260828  0.45057609  0.86857332    -0.75300
O1760       O  0.59407412  0.39546722  0.85468109    -1.11500
O1761       O  0.57658427  0.40523532  0.90679399    -0.70700
C1762       C  0.59973480  0.40296825  0.91859019     1.00100
C1763       C  0.60037649  0.34506775  0.81812326     0.96400
Al1764     Al  0.61733019  0.41510470  0.82338374     1.55600
O1765       O  0.56072308  0.34143018  0.89074477    -0.75300
C1766       C  0.61454423  0.46982479  0.85147603     1.00600
C1767       C  0.66750452  0.41466425  0.85759681     0.95500
O1768       O  0.64693342  0.38454503  0.86146610    -0.80600
O1769       O  0.73072276  0.12354324  0.60042640    -0.80100
C1770       C  0.66007539  0.11898561  0.69938554     0.99300
O1771       O  0.64818778  0.11237059  0.67450485    -0.69200
O1772       O  0.67822217  0.15791861  0.63530152    -0.72800
Al1773     Al  0.66667945  0.11267982  0.63800986     1.49000
C1774       C  0.70051031  0.17701377  0.61822912     0.94500
O1775       O  0.75750117  0.18072003  0.66338507    -0.79000
O1776       O  0.73457773  0.08579794  0.66238490    -0.72600
Al1777     Al  0.74306605  0.15107381  0.63268354     1.90100
O1778       O  0.74995740  0.14309308  0.69573022    -0.71600
O1779       O  0.67179358  0.05927520  0.67597483    -0.71500
O1780       O  0.68579481  0.11771569  0.70568362    -0.77100
O1781       O  0.64976133  0.06654413  0.63754589    -0.75300
O1782       O  0.70621691  0.12214349  0.65129477    -1.11500
O1783       O  0.67839926  0.11186135  0.59917263    -0.70700
C1784       C  0.70387624  0.11436776  0.58723819     1.00100
C1785       C  0.76349370  0.17316833  0.68750900     0.96400
Al1786     Al  0.71014784  0.10295283  0.68268548     1.55600
O1787       O  0.72649687  0.17589929  0.61533451    -0.75300
C1788       C  0.65261859  0.04761213  0.65475370     1.00600
C1789       C  0.76056779  0.10353406  0.64808466     0.95500
O1790       O  0.77014602  0.13357361  0.64403709    -0.80600
O1791       O  0.73118372  0.12536513  0.98909823    -0.80100
C1792       C  0.66090131  0.05902432  0.88989419     0.99300
O1793       O  0.64883004  0.05381921  0.91469485    -0.69200
O1794       O  0.67915065  0.03827984  0.95350652    -0.72800
Al1795     Al  0.66744797  0.07183370  0.95121214     1.49000
C1796       C  0.70160283  0.04156406  0.97035956     0.94500
O1797       O  0.75851213  0.09607140  0.92589945    -0.79000
O1798       O  0.73484425  0.16729182  0.92685172    -0.72600
Al1799     Al  0.74378650  0.11075097  0.95665272     1.90100
O1800       O  0.75075693  0.12591291  0.89355978    -0.71600
O1801       O  0.67202552  0.12993821  0.91318033    -0.71500
O1802       O  0.68677263  0.08610160  0.88363684    -0.77100
O1803       O  0.65054631  0.10097979  0.95198347    -0.75300
O1804       O  0.70694192  0.10239672  0.93800275    -1.11500
O1805       O  0.67906819  0.08391763  0.99009551    -0.70700
C1806       C  0.70438301  0.10704603  0.50221123     1.00100
C1807       C  0.76429331  0.10948364  0.90172462     0.96400
Al1808     Al  0.71074143  0.12547001  0.90658434     1.55600
O1809       O  0.72739570  0.06900201  0.97359533    -0.75300
C1810       C  0.65297792  0.12240386  0.93449526     1.00600
C1811       C  0.76079923  0.17594160  0.94126386     0.95500
O1812       O  0.77052370  0.15570581  0.94554783    -0.80600
O1813       O  0.61703616  0.23973672  0.68305498    -0.80100
C1814       C  0.55049355  0.16966226  0.78231403     0.99300
O1815       O  0.54524336  0.15761237  0.75750860    -0.69200
O1816       O  0.52985542  0.18800984  0.71864432    -0.72800
Al1817     Al  0.56331451  0.17616507  0.72098288     1.49000
C1818       C  0.53321288  0.21041629  0.70170951     0.94500
O1819       O  0.58782096  0.26730271  0.74614831    -0.79000
O1820       O  0.65887172  0.24337286  0.74536863    -0.72600
Al1821     Al  0.60245042  0.25245491  0.71544897     1.90100
O1822       O  0.61752606  0.25944098  0.77856971    -0.71600
O1823       O  0.62138031  0.18061083  0.75903373    -0.71500
O1824       O  0.57760576  0.19549805  0.78855272    -0.77100
O1825       O  0.59236581  0.15914615  0.72025349    -0.75300
O1826       O  0.59396756  0.21561778  0.73416196    -1.11500
O1827       O  0.57543249  0.18771253  0.68209738    -0.70700
C1828       C  0.59862057  0.21296228  0.66996168     1.00100
C1829       C  0.60119184  0.27306009  0.77034172     0.96400
Al1830     Al  0.61700489  0.21937761  0.76560117     1.55600
O1831       O  0.56070153  0.23615506  0.69845794    -0.75300
C1832       C  0.61379045  0.16154415  0.73773313     1.00600
C1833       C  0.66760531  0.26931445  0.73093296     0.95500
O1834       O  0.64741888  0.27908902  0.72657311    -0.80600
O1835       O  0.77036220  0.39302891  0.73903064    -0.80100
C1836       C  0.84083072  0.45966971  0.63997375     0.99300
O1837       O  0.85286176  0.46482989  0.66478991    -0.69200
O1838       O  0.82247156  0.48021505  0.70366438    -0.72800
Al1839     Al  0.83418547  0.44668145  0.70127754     1.49000
C1840       C  0.80001451  0.47686545  0.72054418     0.94500
O1841       O  0.74315018  0.42248391  0.67585004    -0.79000
O1842       O  0.76689523  0.35130847  0.67669976    -0.72600
Al1843     Al  0.75782754  0.40772876  0.70659982     1.90100
O1844       O  0.75099980  0.39274135  0.64347980    -0.71600
O1845       O  0.82970685  0.38869607  0.66314095    -0.71500
O1846       O  0.81499194  0.43259557  0.63366761    -0.77100
O1847       O  0.85109096  0.41754637  0.70199940    -0.75300
O1848       O  0.79472181  0.41615399  0.68799087    -1.11500
O1849       O  0.82248636  0.43445546  0.74012259    -0.70700
C1850       C  0.79713345  0.41131472  0.75218830     1.00100
C1851       C  0.73741401  0.40911904  0.65165713     0.96400
Al1852     Al  0.79100270  0.39317495  0.65652889     1.55600
O1853       O  0.77417259  0.44943279  0.72365075    -0.75300
C1854       C  0.84868325  0.39615488  0.68449461     1.00600
C1855       C  0.74091295  0.34259496  0.69108480     0.95500
O1856       O  0.73114506  0.36279319  0.69540178    -0.80600
O1857       O  0.61500106  0.23928522  0.57176494    -0.80100
C1858       C  0.61048087  0.16875906  0.97280096     0.99300
O1859       O  0.60385144  0.15685176  0.99767409    -0.69200
O1860       O  0.64935976  0.18677309  0.53692534    -0.72800
Al1861     Al  0.60411214  0.17527616  0.53417226     1.49000
C1862       C  0.66846162  0.20903762  0.55400264     0.94500
O1863       O  0.67225148  0.26602943  0.50883593    -0.79000
O1864       O  0.57730740  0.24323489  0.00987210    -0.72600
Al1865     Al  0.64257666  0.25162039  0.53953022     1.90100
O1866       O  0.63462386  0.25860160  0.97651585    -0.71600
O1867       O  0.55073678  0.18047966  0.99619824    -0.71500
O1868       O  0.60920986  0.19447112  0.96651131    -0.77100
O1869       O  0.55795845  0.15837239  0.53459427    -0.75300
O1870       O  0.61361887  0.21481636  0.52090809    -1.11500
O1871       O  0.60324342  0.18695880  0.57300235    -0.70700
C1872       C  0.60577455  0.21243103  0.58493960     1.00100
C1873       C  0.66470848  0.27209610  0.98473672     0.96400
Al1874     Al  0.59444744  0.21880696  0.98952922     1.55600
O1875       O  0.66736031  0.23501709  0.55689716    -0.75300
C1876       C  0.53904116  0.16126000  0.51738494     1.00600
C1877       C  0.59509698  0.26921229  0.52415926     0.95500
O1878       O  0.62514453  0.27874597  0.52816846    -0.80600
O1879       O  0.61586542  0.39234057  0.51671453    -0.80100
C1880       C  0.61177192  0.45915815  0.61535653     0.99300
O1881       O  0.60607486  0.46484064  0.59031685    -0.69200
O1882       O  0.65146150  0.47984825  0.55113484    -0.72800
Al1883     Al  0.60597905  0.44631764  0.55394085     1.49000
C1884       C  0.67021347  0.47646151  0.53393078     0.94500
O1885       O  0.67309950  0.42321837  0.57961993    -0.79000
O1886       O  0.57786085  0.35092274  0.57849505    -0.72600
Al1887     Al  0.64347719  0.40776146  0.54889226     1.90100
O1888       O  0.63517489  0.39321803  0.61196625    -0.71600
O1889       O  0.55176717  0.38740598  0.59167261    -0.71500
O1890       O  0.60992372  0.43192014  0.62169633    -0.77100
O1891       O  0.55964264  0.41743956  0.55357365    -0.75300
O1892       O  0.61477284  0.41593046  0.56735141    -1.11500
O1893       O  0.60487066  0.43336238  0.51526135    -0.70700
C1894       C  0.60705684  0.41018187  0.50345481     1.00100
C1895       C  0.66531603  0.40972789  0.60379747     0.96400
Al1896     Al  0.59520815  0.39273604  0.59868978     1.55600
O1897       O  0.66870774  0.44916797  0.53114883    -0.75300
C1898       C  0.54041545  0.39551923  0.57068596     1.00600
C1899       C  0.59552939  0.34252798  0.56447347     0.95500
O1900       O  0.62565312  0.36306215  0.56053335    -0.80600
O1901       O  0.88580210  0.12596320  0.76689485    -0.80100
C1902       C  0.88997553  0.05942532  0.86565942     0.99300
O1903       O  0.89576471  0.05373878  0.84065512    -0.69200
O1904       O  0.85033002  0.03852942  0.80148218    -0.72800
Al1905     Al  0.89580231  0.07214637  0.80424066     1.49000
C1906       C  0.83153953  0.04184147  0.78426463     0.94500
O1907       O  0.82858008  0.09514481  0.82981709    -0.79000
O1908       O  0.92376592  0.16755955  0.82859975    -0.72600
Al1909     Al  0.85819053  0.11057122  0.79907909     1.90100
O1910       O  0.86649839  0.12528285  0.86211520    -0.71600
O1911       O  0.94996260  0.13119917  0.84187888    -0.71500
O1912       O  0.89180374  0.08666400  0.87195112    -0.77100
O1913       O  0.94213121  0.10112339  0.80382413    -0.75300
O1914       O  0.88694002  0.10251320  0.81757754    -1.11500
O1915       O  0.89685195  0.08497812  0.76553045    -0.70700
C1916       C  0.89462559  0.10811241  0.75367404     1.00100
C1917       C  0.83635938  0.10872291  0.85395742     0.96400
Al1918     Al  0.90648726  0.12579760  0.84887638     1.55600
O1919       O  0.83301384  0.06911466  0.78141695    -0.75300
C1920       C  0.96133898  0.12312799  0.82088342     1.00600
C1921       C  0.90604464  0.17586864  0.81455241     0.95500
O1922       O  0.87593538  0.15527808  0.81063337    -0.80600
O1923       O  0.88460287  0.27868862  0.93329807    -0.80100
C1924       C  0.95118205  0.34926596  0.53230935     0.99300
O1925       O  0.95639453  0.36124439  0.50747268    -0.69200
O1926       O  0.97181355  0.33085260  0.96864251    -0.72800
Al1927     Al  0.93825302  0.34255545  0.97099914     1.49000
C1928       C  0.96847919  0.30840237  0.95177934     0.94500
O1929       O  0.91409691  0.25162403  0.99656156    -0.79000
O1930       O  0.84280041  0.27524965  0.49554552    -0.72600
Al1931     Al  0.89932127  0.26622298  0.96576319     1.90100
O1932       O  0.88426913  0.25946679  0.52886657    -0.71600
O1933       O  0.88015865  0.33807596  0.50905636    -0.71500
O1934       O  0.92407754  0.32346080  0.53862646    -0.77100
O1935       O  0.90912223  0.35948691  0.97024550    -0.75300
O1936       O  0.90770795  0.30311992  0.98431415    -1.11500
O1937       O  0.92601347  0.33081084  0.93216406    -0.70700
C1938       C  0.90287273  0.30544531  0.92011877     1.00100
C1939       C  0.90066805  0.24588249  0.52073481     0.96400
Al1940     Al  0.88467119  0.29941821  0.51574413     1.55600
O1941       O  0.94104370  0.28255779  0.94870096    -0.75300
C1942       C  0.88769244  0.35708457  0.98772147     1.00600
C1943       C  0.83412353  0.24924859  0.98121756     0.95500
O1944       O  0.85436782  0.23951800  0.97697025    -0.80600
C1945       C  0.97819666  0.36460160  0.55271764    -0.11500
C1946       C  0.50513151  0.37835454  0.56441575    -0.13100
C1947       C  0.58257675  0.31036799  0.55137255    -0.11500
C1948       C  0.58241432  0.28846834  0.53740409    -0.13100
C1949       C  0.71319541  0.41084291  0.63423385    -0.11500
C1950       C  0.69119263  0.41113816  0.62112708    -0.13100
C1951       C  0.81429613  0.01775269  0.76277229    -0.11500
C1952       C  0.80642733  0.50133144  0.74148265    -0.13100
C1953       C  0.72184801  0.31032665  0.70406708    -0.11500
C1954       C  0.69988830  0.28835281  0.71795218    -0.13100
C1955       C  0.60145208  0.21208810  0.64011146    -0.11500
C1956       C  0.60178489  0.21182073  0.61474275    -0.13100
C1957       C  0.52352564  0.15432130  0.80278017    -0.11500
C1958       C  0.99661570  0.14045417  0.81453081    -0.13100
C1959       C  0.80185864  0.23012696  0.96820914    -0.11500
C1960       C  0.77989569  0.20817585  0.95430568    -0.13100
C1961       C  0.81048621  0.10737594  0.87124019    -0.11500
C1962       C  0.78849832  0.10773431  0.88431238    -0.13100
C1963       C  0.63503233  0.13963698  0.94064549    -0.11500
C1964       C  0.62199969  0.15344479  0.95231583    -0.13100
C1965       C  0.69524090  0.01695941  0.99113403    -0.11500
C1966       C  0.68743121  0.50048801  0.51239114    -0.13100
C1967       C  0.63517991  0.01239414  0.64822826    -0.11500
C1968       C  0.62271129  0.48573731  0.63611845    -0.13100
C1969       C  0.70327045  0.11036166  0.55743095    -0.11500
C1970       C  0.70352894  0.10995234  0.53206041    -0.13100
C1971       C  0.68571818  0.20226223  0.57537967    -0.11500
C1972       C  0.69373802  0.19426026  0.59684448    -0.13100
C1973       C  0.64474406  0.13049231  0.71987348    -0.11500
C1974       C  0.63096911  0.14354484  0.73157268    -0.13100
C1975       C  0.59947873  0.29730506  0.78771626    -0.11500
C1976       C  0.59910078  0.31927530  0.80078637    -0.13100
C1977       C  0.50937439  0.32269922  0.90952357    -0.11500
C1978       C  0.99295403  0.31481980  0.93082475    -0.13100
C1979       C  0.63175932  0.00509211  0.85778797    -0.11500
C1980       C  0.64556921  0.03202630  0.86947386    -0.13100
C1981       C  0.60297959  0.40664594  0.94835671    -0.11500
C1982       C  0.60328598  0.40691493  0.97369533    -0.13100
C1983       C  0.91895928  0.22984720  0.78745320    -0.11500
C1984       C  0.91890536  0.20799602  0.80141398    -0.13100
C1985       C  0.81045215  0.22163762  0.71765397    -0.11500
C1986       C  0.78809325  0.19928748  0.70471713    -0.13100
C1987       C  0.99750392  0.37472083  0.77394350    -0.11500
C1988       C  0.52422249  0.38738878  0.78598354    -0.13100
C1989       C  0.89951395  0.30642596  0.86490036    -0.11500
C1990       C  0.89991828  0.30619594  0.89027012    -0.13100
C1991       C  0.86654711  0.37885326  0.69068625    -0.11500
C1992       C  0.87947042  0.36497814  0.70242206    -0.13100
C1993       C  0.69966560  0.42752203  0.87071699    -0.11500
C1994       C  0.72153067  0.42758973  0.88469109    -0.13100
C1995       C  0.69084071  0.29674664  0.96757194    -0.11500
C1996       C  0.71319723  0.31913437  0.95466391    -0.13100
C1997       C  0.80763230  0.32407214  0.84700350    -0.11500
C1998       C  0.81558532  0.31597805  0.82555815    -0.13100
C1999       C  0.85659692  0.38800080  0.96985299    -0.11500
C2000       C  0.87044227  0.37500795  0.98153267    -0.13100
C2001       C  0.86628178  0.00610441  0.89842953    -0.11500
C2002       C  0.87890005  0.03282146  0.88640967    -0.13100
C2003       C  0.79790125  0.40838782  0.78203624    -0.11500
C2004       C  0.79812156  0.40801248  0.80740459    -0.13100
C2005       C  0.80167348  0.09086532  0.62093389    -0.11500
C2006       C  0.77978578  0.09078255  0.63487505    -0.13100
C2007       C  0.90250652  0.19957878  0.55126653    -0.11500
C2008       C  0.90230545  0.22162937  0.53816978    -0.13100
C2009       C  0.50379809  0.14379457  0.52387122    -0.11500
C2010       C  0.97712356  0.13127606  0.53597737    -0.13100
C2011       C  0.50863583  0.20401682  0.68087693    -0.11500
C2012       C  0.99209500  0.19606057  0.65965223    -0.13100
C2013       C  0.86989055  0.01361439  0.60785789    -0.11500
C2014       C  0.85615099  0.48669790  0.61957667    -0.13100
C2015       C  0.89859170  0.11157869  0.69856666    -0.11500
C2016       C  0.89834960  0.11130564  0.72390626    -0.13100
O2017       O  0.88380611  0.62405674  0.15559831    -0.80100
C2018       C  0.95056649  0.62027640  0.05678173     0.99300
O2019       O  0.95633353  0.61460945  0.08179907    -0.69200
O2020       O  0.97135329  0.65995728  0.12099946    -0.72800
Al2021     Al  0.93786700  0.61445202  0.11821346     1.49000
C2022       C  0.96794559  0.67866327  0.13823540     0.94500
O2023       O  0.91450011  0.68141247  0.09277093    -0.79000
O2024       O  0.84228376  0.58619782  0.09381553    -0.72600
Al2025     Al  0.89913812  0.65174420  0.12345649     1.90100
O2026       O  0.88455489  0.64355752  0.06036741    -0.71600
O2027       O  0.87883021  0.56019189  0.08059001    -0.71500
O2028       O  0.92326934  0.61835303  0.05050582    -0.77100
O2029       O  0.90904671  0.56812059  0.11858643    -0.75300
O2030       O  0.90736093  0.62314986  0.10490220    -1.11500
O2031       O  0.92500161  0.61329189  0.15693041    -0.70700
C2032       C  0.90176956  0.61535064  0.16880098     1.00100
C2033       C  0.90104201  0.67367161  0.06857906     0.96400
Al2034     Al  0.88410940  0.60359918  0.07358586     1.55600
O2035       O  0.94058385  0.67700873  0.14114518    -0.75300
C2036       C  0.88704325  0.54887625  0.10154018     1.00600
C2037       C  0.83387041  0.60381764  0.10787746     0.95500
O2038       O  0.85440919  0.63390720  0.11188573    -0.80600
O2039       O  0.77063732  0.89482408  0.35037752    -0.80100
C2040       C  0.84123248  0.89948174  0.44937606     0.99300
O2041       O  0.85316665  0.90617709  0.42451157    -0.69200
O2042       O  0.82324045  0.86062082  0.38530311    -0.72800
Al2043     Al  0.83469519  0.90583478  0.38800688     1.49000
C2044       C  0.80091850  0.84144481  0.36829698     0.94500
O2045       O  0.74386855  0.83771082  0.41337608    -0.79000
O2046       O  0.76672733  0.93262343  0.41228360    -0.72600
Al2047     Al  0.75830445  0.86733643  0.38265741     1.90100
O2048       O  0.75129720  0.87533463  0.44566514    -0.71600
O2049       O  0.82951949  0.95913794  0.42601839    -0.71500
O2050       O  0.81545882  0.90066437  0.45566165    -0.77100
O2051       O  0.85155479  0.95196368  0.38754931    -0.75300
O2052       O  0.79512653  0.89630225  0.40126923    -1.11500
O2053       O  0.82299875  0.90662726  0.34916936    -0.70700
C2054       C  0.79750473  0.90404537  0.33721163     1.00100
C2055       C  0.73780952  0.84525973  0.43746957     0.96400
Al2056     Al  0.79113604  0.91546186  0.43264860     1.55600
O2057       O  0.77491988  0.84252965  0.36538601    -0.75300
C2058       C  0.84872802  0.97085524  0.40482291     1.00600
C2059       C  0.74075580  0.91486824  0.39796030     0.95500
O2060       O  0.73119470  0.88482617  0.39394849    -0.80600
O2061       O  0.88627169  0.77896888  0.32191978    -0.80100
C2062       C  0.89086083  0.84959065  0.22294940     0.99300
O2063       O  0.89739328  0.86143681  0.24784213    -0.69200
O2064       O  0.85189932  0.83146051  0.28708531    -0.72800
Al2065     Al  0.89714848  0.84299649  0.28433029     1.49000
C2066       C  0.83280623  0.80919006  0.30416344     0.94500
O2067       O  0.82904476  0.75222838  0.25897923    -0.79000
O2068       O  0.92398843  0.77506924  0.25997069    -0.72600
Al2069     Al  0.85871642  0.76664063  0.28967466     1.90100
O2070       O  0.86667718  0.75974170  0.22663174    -0.71600
O2071       O  0.95056663  0.83784083  0.24636432    -0.71500
O2072       O  0.89213944  0.82388696  0.21665870    -0.77100
O2073       O  0.94331058  0.85996181  0.28473277    -0.75300
O2074       O  0.88767196  0.80346948  0.27105653    -1.11500
O2075       O  0.89803242  0.83129625  0.32316036    -0.70700
C2076       C  0.89549820  0.80581849  0.33509688     1.00100
C2077       C  0.83659025  0.74622683  0.23485614     0.96400
Al2078     Al  0.90685880  0.79951663  0.23966825     1.55600
O2079       O  0.83390574  0.78320866  0.30704556    -0.75300
C2080       C  0.96224577  0.85711264  0.26751703     1.00600
C2081       C  0.90622598  0.74908487  0.27425783     0.95500
O2082       O  0.87618205  0.73954056  0.27831607    -0.80600
O2083       O  0.61757581  0.89417497  0.40530572    -0.80100
C2084       C  0.55086785  0.89849984  0.30670841     0.99300
O2085       O  0.54519256  0.90424554  0.33173474    -0.69200
O2086       O  0.53008082  0.85878558  0.37084793    -0.72800
Al2087     Al  0.56367588  0.90425001  0.36811548     1.49000
C2088       C  0.53343130  0.83996746  0.38799527     0.94500
O2089       O  0.58676599  0.83720265  0.34225194    -0.79000
O2090       O  0.65914184  0.93239543  0.34362879    -0.72600
Al2091     Al  0.60218832  0.86669732  0.37306070     1.90100
O2092       O  0.61691507  0.87522127  0.31003318    -0.71600
O2093       O  0.62263343  0.95850487  0.33045472    -0.71500
O2094       O  0.57813942  0.90039570  0.30036598    -0.77100
O2095       O  0.59260819  0.95057605  0.36857329    -0.75300
O2096       O  0.59407408  0.89546719  0.35468110    -1.11500
O2097       O  0.57658424  0.90523530  0.40679400    -0.70700
C2098       C  0.59973481  0.90296828  0.41859014     1.00100
C2099       C  0.60037653  0.84506780  0.31812324     0.96400
Al2100     Al  0.61733021  0.91510468  0.32338376     1.55600
O2101       O  0.56072302  0.84143010  0.39074476    -0.75300
C2102       C  0.61454422  0.96982474  0.35147602     1.00600
C2103       C  0.66750454  0.91466428  0.35759685     0.95500
O2104       O  0.64693344  0.88454507  0.36146615    -0.80600
O2105       O  0.73072275  0.62354317  0.10042641    -0.80100
C2106       C  0.66007541  0.61898566  0.19938557     0.99300
O2107       O  0.64818774  0.61237062  0.17450483    -0.69200
O2108       O  0.67822221  0.65791863  0.13530148    -0.72800
Al2109     Al  0.66667945  0.61267983  0.13800984     1.49000
C2110       C  0.70051033  0.67701374  0.11822904     0.94500
O2111       O  0.75750123  0.68072008  0.16338498    -0.79000
O2112       O  0.73457767  0.58579787  0.16238481    -0.72600
Al2113     Al  0.74306606  0.65107380  0.13268350     1.90100
O2114       O  0.74995743  0.64309310  0.19573013    -0.71600
O2115       O  0.67179354  0.55927516  0.17597483    -0.71500
O2116       O  0.68579480  0.61771571  0.20568357    -0.77100
O2117       O  0.64976136  0.56654415  0.13754587    -0.75300
O2118       O  0.70621690  0.62214351  0.15129474    -1.11500
O2119       O  0.67839927  0.61186134  0.09917261    -0.70700
C2120       C  0.70387622  0.61436771  0.08723822     1.00100
C2121       C  0.76349375  0.67316837  0.18750892     0.96400
Al2122     Al  0.71014782  0.60295282  0.18268543     1.55600
O2123       O  0.72649689  0.67589928  0.11533443    -0.75300
C2124       C  0.65261860  0.54761211  0.15475366     1.00600
C2125       C  0.76056773  0.60353398  0.14808460     0.95500
O2126       O  0.77014601  0.63357358  0.14403710    -0.80600
O2127       O  0.73118370  0.62536517  0.48909826    -0.80100
C2128       C  0.66090133  0.55902433  0.38989423     0.99300
O2129       O  0.64883009  0.55381917  0.41469487    -0.69200
O2130       O  0.67915070  0.53827988  0.45350651    -0.72800
Al2131     Al  0.66744798  0.57183370  0.45121217     1.49000
C2132       C  0.70160285  0.54156411  0.47035963     0.94500
O2133       O  0.75851216  0.59607145  0.42589949    -0.79000
O2134       O  0.73484426  0.66729185  0.42685180    -0.72600
Al2135     Al  0.74378650  0.61075101  0.45665276     1.90100
O2136       O  0.75075693  0.62591292  0.39355980    -0.71600
O2137       O  0.67202557  0.62993824  0.41318041    -0.71500
O2138       O  0.68677262  0.58610164  0.38363686    -0.77100
O2139       O  0.65054631  0.60097979  0.45198353    -0.75300
O2140       O  0.70694192  0.60239674  0.43800278    -1.11500
O2141       O  0.67906816  0.58391767  0.49009554    -0.70700
C2142       C  0.70438304  0.60704605  0.00221119     1.00100
C2143       C  0.76429330  0.60948366  0.40172468     0.96400
Al2144     Al  0.71074143  0.62547004  0.40658438     1.55600
O2145       O  0.72739569  0.56900206  0.47359542    -0.75300
C2146       C  0.65297797  0.62240389  0.43449533     1.00600
C2147       C  0.76079925  0.67594162  0.44126392     0.95500
O2148       O  0.77052373  0.65570584  0.44554782    -0.80600
O2149       O  0.61703612  0.73973674  0.18305500    -0.80100
C2150       C  0.55049344  0.66966222  0.28231403     0.99300
O2151       O  0.54524325  0.65761243  0.25750858    -0.69200
O2152       O  0.52985534  0.68800979  0.21864429    -0.72800
Al2153     Al  0.56331444  0.67616507  0.22098288     1.49000
C2154       C  0.53321284  0.71041629  0.20170954     0.94500
O2155       O  0.58782079  0.76730265  0.24614831    -0.79000
O2156       O  0.65887162  0.74337290  0.24536871    -0.72600
Al2157     Al  0.60245034  0.75245490  0.21544898     1.90100
O2158       O  0.61752591  0.75944097  0.27856971    -0.71600
O2159       O  0.62138020  0.68061075  0.25903380    -0.71500
O2160       O  0.57760571  0.69549802  0.28855275    -0.77100
O2161       O  0.59236571  0.65914614  0.22025354    -0.75300
O2162       O  0.59396749  0.71561777  0.23416197    -1.11500
O2163       O  0.57543249  0.68771252  0.18209738    -0.70700
C2164       C  0.59862058  0.71296228  0.16996173     1.00100
C2165       C  0.60119172  0.77306000  0.27034174     0.96400
Al2166     Al  0.61700480  0.71937759  0.26560121     1.55600
O2167       O  0.56070148  0.73615503  0.19845797    -0.75300
C2168       C  0.61379036  0.66154408  0.23773320     1.00600
C2169       C  0.66760518  0.76931446  0.23093300     0.95500
O2170       O  0.64741881  0.77908905  0.22657310    -0.80600
O2171       O  0.77036225  0.89302895  0.23903070    -0.80100
C2172       C  0.84083075  0.95966973  0.13997372     0.99300
O2173       O  0.85286176  0.96482991  0.16478993    -0.69200
O2174       O  0.82247157  0.98021502  0.20366434    -0.72800
Al2175     Al  0.83418549  0.94668145  0.20127754     1.49000
C2176       C  0.80001454  0.97686548  0.22054417     0.94500
O2177       O  0.74315019  0.92248392  0.17585011    -0.79000
O2178       O  0.76689511  0.85130846  0.17669976    -0.72600
Al2179     Al  0.75782756  0.90772879  0.20659987     1.90100
O2180       O  0.75099984  0.89274142  0.14347983    -0.71600
O2181       O  0.82970678  0.88869594  0.16314102    -0.71500
O2182       O  0.81499203  0.93259558  0.13366758    -0.77100
O2183       O  0.85109102  0.91754641  0.20199937    -0.75300
O2184       O  0.79472183  0.91615398  0.18799089    -1.11500
O2185       O  0.82248640  0.93445549  0.24012263    -0.70700
C2186       C  0.79713350  0.91131476  0.25218833     1.00100
C2187       C  0.73741402  0.90911908  0.15165719     0.96400
Al2188     Al  0.79100269  0.89317494  0.15652891     1.55600
O2189       O  0.77417264  0.94943284  0.22365077    -0.75300
C2190       C  0.84868326  0.89615487  0.18449467     1.00600
C2191       C  0.74091286  0.84259496  0.19108479     0.95500
O2192       O  0.73114502  0.86279323  0.19540187    -0.80600
O2193       O  0.61500107  0.73928520  0.07176496    -0.80100
C2194       C  0.61048088  0.66875909  0.47280093     0.99300
O2195       O  0.60385143  0.65685174  0.49767408    -0.69200
O2196       O  0.64935977  0.68677311  0.03692530    -0.72800
Al2197     Al  0.60411212  0.67527614  0.03417227     1.49000
C2198       C  0.66846164  0.70903765  0.05400256     0.94500
O2199       O  0.67225147  0.76602944  0.00883594    -0.79000
O2200       O  0.57730739  0.74323482  0.50987217    -0.72600
Al2201     Al  0.64257665  0.75162038  0.03953020     1.90100
O2202       O  0.63462387  0.75860163  0.47651588    -0.71600
O2203       O  0.55073679  0.68047964  0.49619823    -0.71500
O2204       O  0.60920989  0.69447113  0.46651132    -0.77100
O2205       O  0.55795843  0.65837237  0.03459430    -0.75300
O2206       O  0.61361884  0.71481635  0.02090809    -1.11500
O2207       O  0.60324339  0.68695878  0.07300237    -0.70700
C2208       C  0.60577455  0.71243104  0.08493958     1.00100
C2209       C  0.66470850  0.77209613  0.48473670     0.96400
Al2210     Al  0.59444746  0.71880695  0.48952925     1.55600
O2211       O  0.66736035  0.73501712  0.05689710    -0.75300
C2212       C  0.53904112  0.66125995  0.01738493     1.00600
C2213       C  0.59509697  0.76921225  0.02415928     0.95500
O2214       O  0.62514444  0.77874587  0.02816841    -0.80600
O2215       O  0.61586545  0.89234058  0.01671456    -0.80100
C2216       C  0.61177195  0.95915819  0.11535651     0.99300
O2217       O  0.60607492  0.96484067  0.09031687    -0.69200
O2218       O  0.65146153  0.97984828  0.05113478    -0.72800
Al2219     Al  0.60597907  0.94631765  0.05394088     1.49000
C2220       C  0.67021348  0.97646150  0.03393073     0.94500
O2221       O  0.67309952  0.92321841  0.07961997    -0.79000
O2222       O  0.57786088  0.85092275  0.07849509    -0.72600
Al2223     Al  0.64347723  0.90776148  0.04889232     1.90100
O2224       O  0.63517490  0.89321808  0.11196629    -0.71600
O2225       O  0.55176717  0.88740597  0.09167263    -0.71500
O2226       O  0.60992373  0.93192016  0.12169637    -0.77100
O2227       O  0.55964264  0.91743962  0.05357372    -0.75300
O2228       O  0.61477287  0.91593048  0.06735146    -1.11500
O2229       O  0.60487063  0.93336235  0.01526143    -0.70700
C2230       C  0.60705684  0.91018180  0.00345488     1.00100
C2231       C  0.66531607  0.90972792  0.10379752     0.96400
Al2232     Al  0.59520817  0.89273606  0.09868983     1.55600
O2233       O  0.66870775  0.94916793  0.03114886    -0.75300
C2234       C  0.54041546  0.89551926  0.07068605     1.00600
C2235       C  0.59552944  0.84252804  0.06447346     0.95500
O2236       O  0.62565316  0.86306218  0.06053343    -0.80600
O2237       O  0.88580206  0.62596319  0.26689484    -0.80100
C2238       C  0.88997554  0.55942535  0.36565949     0.99300
O2239       O  0.89576473  0.55373882  0.34065516    -0.69200
O2240       O  0.85033000  0.53852936  0.30148214    -0.72800
Al2241     Al  0.89580229  0.57214637  0.30424067     1.49000
C2242       C  0.83153949  0.54184148  0.28426462     0.94500
O2243       O  0.82858005  0.59514484  0.32981707    -0.79000
O2244       O  0.92376592  0.66755949  0.32859968    -0.72600
Al2245     Al  0.85819051  0.61057123  0.29907909     1.90100
O2246       O  0.86649833  0.62528289  0.36211518    -0.71600
O2247       O  0.94996259  0.63119917  0.34187892    -0.71500
O2248       O  0.89180371  0.58666402  0.37195116    -0.77100
O2249       O  0.94213116  0.60112342  0.30382416    -0.75300
O2250       O  0.88693998  0.60251319  0.31757755    -1.11500
O2251       O  0.89685196  0.58497814  0.26553048    -0.70700
C2252       C  0.89462557  0.60811238  0.25367404     1.00100
C2253       C  0.83635938  0.60872294  0.35395735     0.96400
Al2254     Al  0.90648723  0.62579760  0.34887638     1.55600
O2255       O  0.83301383  0.56911465  0.28141699    -0.75300
C2256       C  0.96133891  0.62312794  0.32088339     1.00600
C2257       C  0.90604465  0.67586866  0.31455243     0.95500
O2258       O  0.87593537  0.65527812  0.31063340    -0.80600
O2259       O  0.88460280  0.77868844  0.43329801    -0.80100
C2260       C  0.95118209  0.84926596  0.03230935     0.99300
O2261       O  0.95639453  0.86124437  0.00747270    -0.69200
O2262       O  0.97181348  0.83085249  0.46864255    -0.72800
Al2263     Al  0.93825295  0.84255535  0.47099912     1.49000
C2264       C  0.96847915  0.80840225  0.45177933     0.94500
O2265       O  0.91409691  0.75162402  0.49656151    -0.79000
O2266       O  0.84280041  0.77524966  0.99554551    -0.72600
Al2267     Al  0.89932124  0.76622290  0.46576316     1.90100
O2268       O  0.88426913  0.75946681  0.02886663    -0.71600
O2269       O  0.88015866  0.83807596  0.00905634    -0.71500
O2270       O  0.92407754  0.82346080  0.03862648    -0.77100
O2271       O  0.90912211  0.85948674  0.47024551    -0.75300
O2272       O  0.90770791  0.80311984  0.48431412    -1.11500
O2273       O  0.92601333  0.83081070  0.43216402    -0.70700
C2274       C  0.90287270  0.80544524  0.42011874     1.00100
C2275       C  0.90066808  0.74588252  0.02073483     0.96400
Al2276     Al  0.88467119  0.79941821  0.01574415     1.55600
O2277       O  0.94104366  0.78255770  0.44870093    -0.75300
C2278       C  0.88769239  0.85708448  0.48772143     1.00600
C2279       C  0.83412356  0.74924860  0.48121756     0.95500
O2280       O  0.85436782  0.73951800  0.47697026    -0.80600
C2281       C  0.97819669  0.86460156  0.05271766    -0.11500
C2282       C  0.50513147  0.87835457  0.06441581    -0.13100
C2283       C  0.58257679  0.81036805  0.05137251    -0.11500
C2284       C  0.58241433  0.78846832  0.03740410    -0.13100
C2285       C  0.71319543  0.91084294  0.13423393    -0.11500
C2286       C  0.69119262  0.91113816  0.12112710    -0.13100
C2287       C  0.81429611  0.51775274  0.26277224    -0.11500
C2288       C  0.80642743  0.00133155  0.24148255    -0.13100
C2289       C  0.72184786  0.81032662  0.20406708    -0.11500
C2290       C  0.69988823  0.78835280  0.21795220    -0.13100
C2291       C  0.60145213  0.71208810  0.14011143    -0.11500
C2292       C  0.60178490  0.71182073  0.11474283    -0.13100
C2293       C  0.52352563  0.65432127  0.30278018    -0.11500
C2294       C  0.99661565  0.64045414  0.31453080    -0.13100
C2295       C  0.80185867  0.73012699  0.46820920    -0.11500
C2296       C  0.77989570  0.70817584  0.45430576    -0.13100
C2297       C  0.81048609  0.60737593  0.37124017    -0.11500
C2298       C  0.78849833  0.60773431  0.38431236    -0.13100
C2299       C  0.63503237  0.63963701  0.44064553    -0.11500
C2300       C  0.62199970  0.65344480  0.45231582    -0.13100
C2301       C  0.69524081  0.51695947  0.49113413    -0.11500
C2302       C  0.68743124  0.00048792  0.01239104    -0.13100
C2303       C  0.63517994  0.51239415  0.14822817    -0.11500
C2304       C  0.62271136  0.98573739  0.13611844    -0.13100
C2305       C  0.70327049  0.61036164  0.05743092    -0.11500
C2306       C  0.70352899  0.60995237  0.03206041    -0.13100
C2307       C  0.68571817  0.70226223  0.07537962    -0.11500
C2308       C  0.69373799  0.69426019  0.09684438    -0.13100
C2309       C  0.64474406  0.63049232  0.21987347    -0.11500
C2310       C  0.63096901  0.64354482  0.23157269    -0.13100
C2311       C  0.59947860  0.79730506  0.28771625    -0.11500
C2312       C  0.59910072  0.81927528  0.30078633    -0.13100
C2313       C  0.50937433  0.82269906  0.40952358    -0.11500
C2314       C  0.99295393  0.81481973  0.43082477    -0.13100
C2315       C  0.63175935  0.50509216  0.35778800    -0.11500
C2316       C  0.64556921  0.53202630  0.36947384    -0.13100
C2317       C  0.60297967  0.90664597  0.44835665    -0.11500
C2318       C  0.60328601  0.90691492  0.47369528    -0.13100
C2319       C  0.91895935  0.72984725  0.28745325    -0.11500
C2320       C  0.91890539  0.70799607  0.30141406    -0.13100
C2321       C  0.81045220  0.72163764  0.21765394    -0.11500
C2322       C  0.78809329  0.69928750  0.20471704    -0.13100
C2323       C  0.99750397  0.87472086  0.27394345    -0.11500
C2324       C  0.52422255  0.88738882  0.28598345    -0.13100
C2325       C  0.89951397  0.80642595  0.36490036    -0.11500
C2326       C  0.89991821  0.80619582  0.39027007    -0.13100
C2327       C  0.86654707  0.87885324  0.19068631    -0.11500
C2328       C  0.87947033  0.86497803  0.20242213    -0.13100
C2329       C  0.69966564  0.92752208  0.37071701    -0.11500
C2330       C  0.72153071  0.92758976  0.38469108    -0.13100
C2331       C  0.69084070  0.79674662  0.46757187    -0.11500
C2332       C  0.71319726  0.81913438  0.45466385    -0.13100
C2333       C  0.80763239  0.82407217  0.34700350    -0.11500
C2334       C  0.81558545  0.81597805  0.32555822    -0.13100
C2335       C  0.85659695  0.88800082  0.46985298    -0.11500
C2336       C  0.87044226  0.87500790  0.48153269    -0.13100
C2337       C  0.86628182  0.50610440  0.39842955    -0.11500
C2338       C  0.87890008  0.53282148  0.38640971    -0.13100
C2339       C  0.79790128  0.90838786  0.28203631    -0.11500
C2340       C  0.79812156  0.90801251  0.30740460    -0.13100
C2341       C  0.80167351  0.59086532  0.12093388    -0.11500
C2342       C  0.77978578  0.59078252  0.13487500    -0.13100
C2343       C  0.90250658  0.69957886  0.05126659    -0.11500
C2344       C  0.90230549  0.72162941  0.03816986    -0.13100
C2345       C  0.50379809  0.64379454  0.02387120    -0.11500
C2346       C  0.97712353  0.63127602  0.03597739    -0.13100
C2347       C  0.50863579  0.70401686  0.18087695    -0.11500
C2348       C  0.99209494  0.69606060  0.15965230    -0.13100
C2349       C  0.86989055  0.51361437  0.10785781    -0.11500
C2350       C  0.85615105  0.98669793  0.11957670    -0.13100
C2351       C  0.89859173  0.61157867  0.19856665    -0.11500
C2352       C  0.89834957  0.61130560  0.22390630    -0.13100
O2353       O  0.88380610  0.62405674  0.65559828    -0.80100
C2354       C  0.95056649  0.62027638  0.55678174     0.99300
O2355       O  0.95633351  0.61460944  0.58179903    -0.69200
O2356       O  0.97135332  0.65995728  0.62099942    -0.72800
Al2357     Al  0.93786702  0.61445204  0.61821346     1.49000
C2358       C  0.96794559  0.67866328  0.63823539     0.94500
O2359       O  0.91450012  0.68141250  0.59277089    -0.79000
O2360       O  0.84228381  0.58619789  0.59381558    -0.72600
Al2361     Al  0.89913814  0.65174423  0.62345649     1.90100
O2362       O  0.88455489  0.64355752  0.56036740    -0.71600
O2363       O  0.87883023  0.56019191  0.58059007    -0.71500
O2364       O  0.92326933  0.61835303  0.55050578    -0.77100
O2365       O  0.90904671  0.56812061  0.61858650    -0.75300
O2366       O  0.90736095  0.62314988  0.60490219    -1.11500
O2367       O  0.92500163  0.61329192  0.65693042    -0.70700
C2368       C  0.90176957  0.61535065  0.66880092     1.00100
C2369       C  0.90104200  0.67367160  0.56857901     0.96400
Al2370     Al  0.88410941  0.60359919  0.57358588     1.55600
O2371       O  0.94058387  0.67700870  0.64114517    -0.75300
C2372       C  0.88704324  0.54887627  0.60154025     1.00600
C2373       C  0.83387041  0.60381767  0.60787750     0.95500
O2374       O  0.85440920  0.63390726  0.61188578    -0.80600
O2375       O  0.77063737  0.89482418  0.85037752    -0.80100
C2376       C  0.84123248  0.89948175  0.94937605     0.99300
O2377       O  0.85316662  0.90617707  0.92451158    -0.69200
O2378       O  0.82324047  0.86062085  0.88530307    -0.72800
Al2379     Al  0.83469518  0.90583480  0.88800689     1.49000
C2380       C  0.80091847  0.84144480  0.86829697     0.94500
O2381       O  0.74386838  0.83771081  0.91337602    -0.79000
O2382       O  0.76672735  0.93262344  0.91228357    -0.72600
Al2383     Al  0.75830442  0.86733646  0.88265739     1.90100
O2384       O  0.75129722  0.87533464  0.94566513    -0.71600
O2385       O  0.82951950  0.95913794  0.92601847    -0.71500
O2386       O  0.81545882  0.90066439  0.95566168    -0.77100
O2387       O  0.85155478  0.95196371  0.88754937    -0.75300
O2388       O  0.79512652  0.89630224  0.90126925    -1.11500
O2389       O  0.82299877  0.90662729  0.84916938    -0.70700
C2390       C  0.79750474  0.90404543  0.83721159     1.00100
C2391       C  0.73780946  0.84525974  0.93746954     0.96400
Al2392     Al  0.79113605  0.91546186  0.93264861     1.55600
O2393       O  0.77491985  0.84252966  0.86538604    -0.75300
C2394       C  0.84872804  0.97085525  0.90482293     1.00600
C2395       C  0.74075580  0.91486827  0.89796027     0.95500
O2396       O  0.73119470  0.88482621  0.89394844    -0.80600
O2397       O  0.88627170  0.77896892  0.82191976    -0.80100
C2398       C  0.89086086  0.84959067  0.72294934     0.99300
O2399       O  0.89739336  0.86143685  0.74784206    -0.69200
O2400       O  0.85189938  0.83146067  0.78708537    -0.72800
Al2401     Al  0.89714852  0.84299655  0.78433028     1.49000
C2402       C  0.83280620  0.80919013  0.80416342     0.94500
O2403       O  0.82904476  0.75222840  0.75897925    -0.79000
O2404       O  0.92398844  0.77506930  0.75997076    -0.72600
Al2405     Al  0.85871642  0.76664067  0.78967467     1.90100
O2406       O  0.86667718  0.75974172  0.72663176    -0.71600
O2407       O  0.95056663  0.83784085  0.74636431    -0.71500
O2408       O  0.89213941  0.82388693  0.71665866    -0.77100
O2409       O  0.94331058  0.85996180  0.78473276    -0.75300
O2410       O  0.88767195  0.80346952  0.77105653    -1.11500
O2411       O  0.89803243  0.83129629  0.82316036    -0.70700
C2412       C  0.89549821  0.80581852  0.83509690     1.00100
C2413       C  0.83659025  0.74622687  0.73485619     0.96400
Al2414     Al  0.90685880  0.79951665  0.73966826     1.55600
O2415       O  0.83390573  0.78320875  0.80704552    -0.75300
C2416       C  0.96224576  0.85711265  0.76751708     1.00600
C2417       C  0.90622596  0.74908489  0.77425786     0.95500
O2418       O  0.87618204  0.73954059  0.77831607    -0.80600
O2419       O  0.61757579  0.89417494  0.90530580    -0.80100
C2420       C  0.55086784  0.89849984  0.80670847     0.99300
O2421       O  0.54519259  0.90424558  0.83173480    -0.69200
O2422       O  0.53008089  0.85878557  0.87084785    -0.72800
Al2423     Al  0.56367592  0.90425002  0.86811549     1.49000
C2424       C  0.53343134  0.83996748  0.88799519     0.94500
O2425       O  0.58676600  0.83720269  0.84225194    -0.79000
O2426       O  0.65914182  0.93239542  0.84362878    -0.72600
Al2427     Al  0.60218833  0.86669733  0.87306073     1.90100
O2428       O  0.61691507  0.87522128  0.81003317    -0.71600
O2429       O  0.62263339  0.95850487  0.83045470    -0.71500
O2430       O  0.57813939  0.90039568  0.80036602    -0.77100
O2431       O  0.59260825  0.95057606  0.86857333    -0.75300
O2432       O  0.59407412  0.89546721  0.85468112    -1.11500
O2433       O  0.57658425  0.90523530  0.90679400    -0.70700
C2434       C  0.59973480  0.90296827  0.91859020     1.00100
C2435       C  0.60037651  0.84506778  0.81812328     0.96400
Al2436     Al  0.61733020  0.91510469  0.82338376     1.55600
O2437       O  0.56072304  0.84143008  0.89074475    -0.75300
C2438       C  0.61454421  0.96982476  0.85147604     1.00600
C2439       C  0.66750455  0.91466430  0.85759685     0.95500
O2440       O  0.64693344  0.88454508  0.86146621    -0.80600
O2441       O  0.73072277  0.62354324  0.60042640    -0.80100
C2442       C  0.66007540  0.61898566  0.69938555     0.99300
O2443       O  0.64818781  0.61237063  0.67450484    -0.69200
O2444       O  0.67822220  0.65791862  0.63530154    -0.72800
Al2445     Al  0.66667946  0.61267983  0.63800987     1.49000
C2446       C  0.70051032  0.67701377  0.61822911     0.94500
O2447       O  0.75750121  0.68072005  0.66338506    -0.79000
O2448       O  0.73457771  0.58579790  0.66238492    -0.72600
Al2449     Al  0.74306606  0.65107381  0.63268354     1.90100
O2450       O  0.74995741  0.64309310  0.69573022    -0.71600
O2451       O  0.67179356  0.55927515  0.67597484    -0.71500
O2452       O  0.68579482  0.61771571  0.70568362    -0.77100
O2453       O  0.64976133  0.56654413  0.63754590    -0.75300
O2454       O  0.70621691  0.62214350  0.65129477    -1.11500
O2455       O  0.67839926  0.61186135  0.59917264    -0.70700
C2456       C  0.70387622  0.61436773  0.58723819     1.00100
C2457       C  0.76349372  0.67316835  0.68750900     0.96400
Al2458     Al  0.71014783  0.60295282  0.68268549     1.55600
O2459       O  0.72649689  0.67589931  0.61533452    -0.75300
C2460       C  0.65261857  0.54761207  0.65475371     1.00600
C2461       C  0.76056774  0.60353398  0.64808466     0.95500
O2462       O  0.77014599  0.63357357  0.64403707    -0.80600
O2463       O  0.73118371  0.62536511  0.98909824    -0.80100
C2464       C  0.66090132  0.55902433  0.88989419     0.99300
O2465       O  0.64883006  0.55381917  0.91469486    -0.69200
O2466       O  0.67915065  0.53827986  0.95350655    -0.72800
Al2467     Al  0.66744796  0.57183371  0.95121214     1.49000
C2468       C  0.70160284  0.54156407  0.97035957     0.94500
O2469       O  0.75851212  0.59607139  0.92589944    -0.79000
O2470       O  0.73484428  0.66729184  0.92685172    -0.72600
Al2471     Al  0.74378649  0.61075097  0.95665272     1.90100
O2472       O  0.75075695  0.62591294  0.89355979    -0.71600
O2473       O  0.67202555  0.62993825  0.91318033    -0.71500
O2474       O  0.68677262  0.58610162  0.88363685    -0.77100
O2475       O  0.65054630  0.60097981  0.95198344    -0.75300
O2476       O  0.70694191  0.60239673  0.93800275    -1.11500
O2477       O  0.67906814  0.58391769  0.99009551    -0.70700
C2478       C  0.70438303  0.60704607  0.50221122     1.00100
C2479       C  0.76429333  0.60948366  0.90172462     0.96400
Al2480     Al  0.71074144  0.62547003  0.90658435     1.55600
O2481       O  0.72739572  0.56900203  0.97359532    -0.75300
C2482       C  0.65297794  0.62240390  0.93449525     1.00600
C2483       C  0.76079925  0.67594162  0.94126386     0.95500
O2484       O  0.77052370  0.65570582  0.94554785    -0.80600
O2485       O  0.61703617  0.73973674  0.68305497    -0.80100
C2486       C  0.55049347  0.66966222  0.78231401     0.99300
O2487       O  0.54524335  0.65761238  0.75750860    -0.69200
O2488       O  0.52985536  0.68800985  0.71864436    -0.72800
Al2489     Al  0.56331448  0.67616508  0.72098288     1.49000
C2490       C  0.53321287  0.71041631  0.70170951     0.94500
O2491       O  0.58782090  0.76730271  0.74614831    -0.79000
O2492       O  0.65887172  0.74337287  0.74536863    -0.72600
Al2493     Al  0.60245041  0.75245492  0.71544896     1.90100
O2494       O  0.61752606  0.75944101  0.77856967    -0.71600
O2495       O  0.62138022  0.68061075  0.75903376    -0.71500
O2496       O  0.57760575  0.69549808  0.78855272    -0.77100
O2497       O  0.59236578  0.65914617  0.72025347    -0.75300
O2498       O  0.59396755  0.71561779  0.73416196    -1.11500
O2499       O  0.57543248  0.68771255  0.68209740    -0.70700
C2500       C  0.59862059  0.71296228  0.66996169     1.00100
C2501       C  0.60119183  0.77306009  0.77034171     0.96400
Al2502     Al  0.61700487  0.71937761  0.76560117     1.55600
O2503       O  0.56070151  0.73615501  0.69845792    -0.75300
C2504       C  0.61379038  0.66154407  0.73773313     1.00600
C2505       C  0.66760532  0.76931448  0.73093297     0.95500
O2506       O  0.64741888  0.77908906  0.72657313    -0.80600
O2507       O  0.77036222  0.89302894  0.73903065    -0.80100
C2508       C  0.84083073  0.95966973  0.63997377     0.99300
O2509       O  0.85286177  0.96482992  0.66478991    -0.69200
O2510       O  0.82247153  0.98021500  0.70366437    -0.72800
Al2511     Al  0.83418549  0.94668145  0.70127753     1.49000
C2512       C  0.80001453  0.97686546  0.72054419     0.94500
O2513       O  0.74315022  0.92248394  0.67585005    -0.79000
O2514       O  0.76689515  0.85130845  0.67669971    -0.72600
Al2515     Al  0.75782755  0.90772877  0.70659982     1.90100
O2516       O  0.75099984  0.89274140  0.64347980    -0.71600
O2517       O  0.82970679  0.88869597  0.66314098    -0.71500
O2518       O  0.81499198  0.93259559  0.63366762    -0.77100
O2519       O  0.85109102  0.91754640  0.70199936    -0.75300
O2520       O  0.79472182  0.91615396  0.68799088    -1.11500
O2521       O  0.82248639  0.93445547  0.74012259    -0.70700
C2522       C  0.79713347  0.91131475  0.75218831     1.00100
C2523       C  0.73741405  0.90911909  0.65165713     0.96400
Al2524     Al  0.79100269  0.89317494  0.65652889     1.55600
O2525       O  0.77417258  0.94943278  0.72365076    -0.75300
C2526       C  0.84868326  0.89615487  0.68449461     1.00600
C2527       C  0.74091292  0.84259493  0.69108478     0.95500
O2528       O  0.73114504  0.86279321  0.69540182    -0.80600
O2529       O  0.61500103  0.73928518  0.57176493    -0.80100
C2530       C  0.61048087  0.66875906  0.97280098     0.99300
O2531       O  0.60385140  0.65685172  0.99767411    -0.69200
O2532       O  0.64935978  0.68677312  0.53692532    -0.72800
Al2533     Al  0.60411215  0.67527616  0.53417225     1.49000
C2534       C  0.66846164  0.70903764  0.55400263     0.94500
O2535       O  0.67225150  0.76602947  0.50883593    -0.79000
O2536       O  0.57730734  0.74323483  0.00987212    -0.72600
Al2537     Al  0.64257666  0.75162038  0.53953022     1.90100
O2538       O  0.63462387  0.75860162  0.97651586    -0.71600
O2539       O  0.55073677  0.68047961  0.99619825    -0.71500
O2540       O  0.60920989  0.69447113  0.96651135    -0.77100
O2541       O  0.55795846  0.65837243  0.53459428    -0.75300
O2542       O  0.61361888  0.71481636  0.52090809    -1.11500
O2543       O  0.60324344  0.68695878  0.57300235    -0.70700
C2544       C  0.60577455  0.71243104  0.58493960     1.00100
C2545       C  0.66470849  0.77209614  0.98473673     0.96400
Al2546     Al  0.59444744  0.71880694  0.98952924     1.55600
O2547       O  0.66736033  0.73501712  0.55689716    -0.75300
C2548       C  0.53904118  0.66126003  0.51738494     1.00600
C2549       C  0.59509697  0.76921227  0.52415928     0.95500
O2550       O  0.62514448  0.77874591  0.52816846    -0.80600
O2551       O  0.61586542  0.89234058  0.51671453    -0.80100
C2552       C  0.61177195  0.95915819  0.61535653     0.99300
O2553       O  0.60607489  0.96484068  0.59031685    -0.69200
O2554       O  0.65146153  0.97984829  0.55113483    -0.72800
Al2555     Al  0.60597907  0.94631767  0.55394085     1.49000
C2556       C  0.67021349  0.97646153  0.53393078     0.94500
O2557       O  0.67309954  0.92321840  0.57961992    -0.79000
O2558       O  0.57786088  0.85092277  0.57849505    -0.72600
Al2559     Al  0.64347722  0.90776149  0.54889226     1.90100
O2560       O  0.63517493  0.89321807  0.61196624    -0.71600
O2561       O  0.55176720  0.88740602  0.59167261    -0.71500
O2562       O  0.60992375  0.93192018  0.62169633    -0.77100
O2563       O  0.55964265  0.91743960  0.55357365    -0.75300
O2564       O  0.61477287  0.91593050  0.56735141    -1.11500
O2565       O  0.60487066  0.93336239  0.51526135    -0.70700
C2566       C  0.60705684  0.91018182  0.50345481     1.00100
C2567       C  0.66531612  0.90972794  0.60379745     0.96400
Al2568     Al  0.59520819  0.89273608  0.59868978     1.55600
O2569       O  0.66870774  0.94916799  0.53114884    -0.75300
C2570       C  0.54041546  0.89551926  0.57068596     1.00600
C2571       C  0.59552942  0.84252802  0.56447347     0.95500
O2572       O  0.62565315  0.86306219  0.56053336    -0.80600
O2573       O  0.88580213  0.62596322  0.76689484    -0.80100
C2574       C  0.88997555  0.55942535  0.86565943     0.99300
O2575       O  0.89576473  0.55373881  0.84065513    -0.69200
O2576       O  0.85033002  0.53852939  0.80148218    -0.72800
Al2577     Al  0.89580231  0.57214637  0.80424066     1.49000
C2578       C  0.83153953  0.54184147  0.78426465     0.94500
O2579       O  0.82858010  0.59514485  0.82981709    -0.79000
O2580       O  0.92376592  0.66755953  0.82859972    -0.72600
Al2581     Al  0.85819054  0.61057123  0.79907908     1.90100
O2582       O  0.86649841  0.62528289  0.86211520    -0.71600
O2583       O  0.94996261  0.63119917  0.84187888    -0.71500
O2584       O  0.89180375  0.58666403  0.87195113    -0.77100
O2585       O  0.94213121  0.60112340  0.80382413    -0.75300
O2586       O  0.88694002  0.60251321  0.81757755    -1.11500
O2587       O  0.89685195  0.58497813  0.76553047    -0.70700
C2588       C  0.89462558  0.60811240  0.75367404     1.00100
C2589       C  0.83635940  0.60872294  0.85395741     0.96400
Al2590     Al  0.90648727  0.62579761  0.84887637     1.55600
O2591       O  0.83301386  0.56911464  0.78141695    -0.75300
C2592       C  0.96133896  0.62312795  0.82088340     1.00600
C2593       C  0.90604465  0.67586865  0.81455240     0.95500
O2594       O  0.87593538  0.65527811  0.81063337    -0.80600
O2595       O  0.88460286  0.77868861  0.93329809    -0.80100
C2596       C  0.95118206  0.84926595  0.53230935     0.99300
O2597       O  0.95639452  0.86124436  0.50747268    -0.69200
O2598       O  0.97181357  0.83085262  0.96864252    -0.72800
Al2599     Al  0.93825299  0.84255541  0.97099913     1.49000
C2600       C  0.96847920  0.80840238  0.95177935     0.94500
O2601       O  0.91409692  0.75162405  0.99656156    -0.79000
O2602       O  0.84280042  0.77524965  0.49554553    -0.72600
Al2603     Al  0.89932128  0.76622298  0.96576319     1.90100
O2604       O  0.88426912  0.75946678  0.52886658    -0.71600
O2605       O  0.88015859  0.83807587  0.50905636    -0.71500
O2606       O  0.92407753  0.82346079  0.53862646    -0.77100
O2607       O  0.90912211  0.85948675  0.97024544    -0.75300
O2608       O  0.90770795  0.80311989  0.98431415    -1.11500
O2609       O  0.92601347  0.83081081  0.93216404    -0.70700
C2610       C  0.90287272  0.80544529  0.92011877     1.00100
C2611       C  0.90066804  0.74588245  0.52073482     0.96400
Al2612     Al  0.88467117  0.79941817  0.51574414     1.55600
O2613       O  0.94104372  0.78255780  0.94870096    -0.75300
C2614       C  0.88769240  0.85708449  0.98772139     1.00600
C2615       C  0.83412355  0.74924862  0.98121756     0.95500
O2616       O  0.85436783  0.73951802  0.97697025    -0.80600
C2617       C  0.97819666  0.86460155  0.55271763    -0.11500
C2618       C  0.50513153  0.87835454  0.56441574    -0.13100
C2619       C  0.58257678  0.81036802  0.55137254    -0.11500
C2620       C  0.58241433  0.78846833  0.53740407    -0.13100
C2621       C  0.71319546  0.91084296  0.63423387    -0.11500
C2622       C  0.69119266  0.91113819  0.62112706    -0.13100
C2623       C  0.81429607  0.51775263  0.76277230    -0.11500
C2624       C  0.80642736  0.00133144  0.74148262    -0.13100
C2625       C  0.72184800  0.81032667  0.70406707    -0.11500
C2626       C  0.69988829  0.78835282  0.71795220    -0.13100
C2627       C  0.60145207  0.71208805  0.64011147    -0.11500
C2628       C  0.60178488  0.71182070  0.61474275    -0.13100
C2629       C  0.52352564  0.65432131  0.80278016    -0.11500
C2630       C  0.99661570  0.64045416  0.81453082    -0.13100
C2631       C  0.80185866  0.73012699  0.96820913    -0.11500
C2632       C  0.77989572  0.70817587  0.95430568    -0.13100
C2633       C  0.81048623  0.60737598  0.87124019    -0.11500
C2634       C  0.78849835  0.60773436  0.88431238    -0.13100
C2635       C  0.63503236  0.63963703  0.94064548    -0.11500
C2636       C  0.62199971  0.65344481  0.95231584    -0.13100
C2637       C  0.69524090  0.51695943  0.99113405    -0.11500
C2638       C  0.68743125  0.00048801  0.51239113    -0.13100
C2639       C  0.63517989  0.51239412  0.64822824    -0.11500
C2640       C  0.62271133  0.98573737  0.63611847    -0.13100
C2641       C  0.70327045  0.61036165  0.55743095    -0.11500
C2642       C  0.70352896  0.60995238  0.53206041    -0.13100
C2643       C  0.68571817  0.70226223  0.57537965    -0.11500
C2644       C  0.69373798  0.69426019  0.59684446    -0.13100
C2645       C  0.64474406  0.63049231  0.71987346    -0.11500
C2646       C  0.63096901  0.64354480  0.73157268    -0.13100
C2647       C  0.59947872  0.79730508  0.78771628    -0.11500
C2648       C  0.59910077  0.81927528  0.80078638    -0.13100
C2649       C  0.50937434  0.82269910  0.90952354    -0.11500
C2650       C  0.99295403  0.81481979  0.93082475    -0.13100
C2651       C  0.63175934  0.50509215  0.85778797    -0.11500
C2652       C  0.64556922  0.53202632  0.86947384    -0.13100
C2653       C  0.60297961  0.90664598  0.94835671    -0.11500
C2654       C  0.60328598  0.90691493  0.97369534    -0.13100
C2655       C  0.91895931  0.72984723  0.78745321    -0.11500
C2656       C  0.91890539  0.70799604  0.80141400    -0.13100
C2657       C  0.81045217  0.72163766  0.71765397    -0.11500
C2658       C  0.78809327  0.69928752  0.70471713    -0.13100
C2659       C  0.99750395  0.87472083  0.77394352    -0.11500
C2660       C  0.52422251  0.88738881  0.78598355    -0.13100
C2661       C  0.89951395  0.80642596  0.86490036    -0.11500
C2662       C  0.89991826  0.80619588  0.89027012    -0.13100
C2663       C  0.86654708  0.87885325  0.69068624    -0.11500
C2664       C  0.87947034  0.86497803  0.70242207    -0.13100
C2665       C  0.69966564  0.92752209  0.87071699    -0.11500
C2666       C  0.72153070  0.92758979  0.88469109    -0.13100
C2667       C  0.69084073  0.79674668  0.96757194    -0.11500
C2668       C  0.71319726  0.81913441  0.95466390    -0.13100
C2669       C  0.80763230  0.82407214  0.84700348    -0.11500
C2670       C  0.81558531  0.81597802  0.82555815    -0.13100
C2671       C  0.85659696  0.88800084  0.96985298    -0.11500
C2672       C  0.87044227  0.87500792  0.98153262    -0.13100
C2673       C  0.86628178  0.50610441  0.89842953    -0.11500
C2674       C  0.87890006  0.53282147  0.88640968    -0.13100
C2675       C  0.79790127  0.90838787  0.78203624    -0.11500
C2676       C  0.79812159  0.90801253  0.80740459    -0.13100
C2677       C  0.80167350  0.59086534  0.62093389    -0.11500
C2678       C  0.77978576  0.59078251  0.63487505    -0.13100
C2679       C  0.90250655  0.69957880  0.55126654    -0.11500
C2680       C  0.90230545  0.72162939  0.53816977    -0.13100
C2681       C  0.50379812  0.64379461  0.52387122    -0.11500
C2682       C  0.97712356  0.63127605  0.53597735    -0.13100
C2683       C  0.50863582  0.70401685  0.68087692    -0.11500
C2684       C  0.99209496  0.69606061  0.65965225    -0.13100
C2685       C  0.86989052  0.51361436  0.60785788    -0.11500
C2686       C  0.85615101  0.98669792  0.61957668    -0.13100
C2687       C  0.89859169  0.61157867  0.69856665    -0.11500
C2688       C  0.89834955  0.61130557  0.72390625    -0.13100
loop_ 
_geom_bond_atom_site_label_1 
_geom_bond_atom_site_label_2 
_geom_bond_distance 
_geom_bond_site_symmetry_2 
_ccdc_geom_bond_type 
O1           C16   1.263       .  A
O1           Al9   1.878       .  S
C2           O12   1.265       .  A
C2            O3   1.262       .  A
C2          C330   1.453       .  S
O3           Al5   1.913       .  S
O4            C6   1.258       .  A
O4           Al5   1.902       .  S
Al5          O13   1.884       .  S
Al5          O15   1.907       .  S
Al5          O14   1.778       .  S
C6           O19   1.246       .  A
C6          C332   1.420       .  S
O7           C17   1.259       .  A
O7           Al9   1.872       .  S
O8           C21   1.262       .  A
O8          Al18   1.941       .  S
Al9          O22   1.894       .  S
Al9          O19   1.875       .  S
Al9          O14   1.790       .  S
O10          C17   1.274       .  A
O10         Al18   1.955       .  S
O11          C20   1.264       .  A
O11         Al18   1.941       .  S
O12         Al18   1.927       .  S
O13          C20   1.253       .  A
O14         Al18   1.781       .  S
O15          C16   1.264       .  A
C16         C335   1.407       .  S
C17         C327   1.429       .  S
C20         C333   1.452       .  S
C21          O22   1.252       .  A
C21         C325   1.442       .  S
O23          C38   1.262       .  A
O23         Al31   1.878       .  S
C24          O34   1.266       .  A
C24          O25   1.263       .  A
C24         C319   1.453       .  S
O25         Al27   1.915       .  S
O26          C28   1.258       .  A
O26         Al27   1.901       .  S
Al27         O35   1.883       .  S
Al27         O37   1.909       .  S
Al27         O36   1.778       .  S
C28          O41   1.246       .  A
C28         C317   1.418       .  S
O29          C39   1.259       .  A
O29         Al31   1.872       .  S
O30          C43   1.262       .  A
O30         Al40   1.942       .  S
Al31         O44   1.894       .  S
Al31         O41   1.872       .  S
Al31         O36   1.788       .  S
O32          C39   1.274       .  A
O32         Al40   1.955       .  S
O33          C42   1.264       .  A
O33         Al40   1.943       .  S
O34         Al40   1.929       .  S
O35          C42   1.253       .  A
O36         Al40   1.781       .  S
O37          C38   1.265       .  A
C38         C324   1.410       .  S
C39         C316   1.429       .  S
C42         C993   1.452       .  S
C43          O44   1.252       .  A
C43         C314   1.443       .  S
O45          C60   1.262       .  A
O45         Al53   1.879       .  S
C46          O56   1.266       .  A
C46          O47   1.263       .  A
C46         C312   1.453       .  S
O47         Al49   1.915       .  S
O48          C50   1.258       .  A
O48         Al49   1.901       .  S
Al49         O57   1.882       .  S
Al49         O59   1.910       .  S
Al49         O58   1.779       .  S
C50          O63   1.246       .  A
C50         C318   1.418       .  S
O51          C61   1.259       .  A
O51         Al53   1.872       .  S
O52          C65   1.262       .  A
O52         Al62   1.941       .  S
Al53         O66   1.894       .  S
Al53         O63   1.872       .  S
Al53         O58   1.789       .  S
O54          C61   1.274       .  A
O54         Al62   1.955       .  S
O55          C64   1.264       .  A
O55         Al62   1.943       .  S
O56         Al62   1.928       .  S
O57          C64   1.253       .  A
O58         Al62   1.781       .  S
O59          C60   1.265       .  A
C60         C309   1.410       .  S
C61         C305   1.430       .  S
C64         C307   1.452       .  S
C65          O66   1.252       .  A
C65         C303   1.442       .  S
O67          C82   1.263       .  A
O67         Al75   1.877       .  S
C68          O78   1.265       .  A
C68          O69   1.263       .  A
C68         C308   1.453       .  S
O69         Al71   1.913       .  S
O70          C72   1.258       .  A
O70         Al71   1.902       .  S
Al71         O79   1.884       .  S
Al71         O81   1.907       .  S
Al71         O80   1.778       .  S
C72          O85   1.247       .  A
C72         C297   1.420       .  S
O73          C83   1.259       .  A
O73         Al75   1.872       .  S
O74          C87   1.262       .  A
O74         Al84   1.942       .  S
Al75         O88   1.895       .  S
Al75         O85   1.876       .  S
Al75         O80   1.790       .  S
O76          C83   1.274       .  A
O76         Al84   1.955       .  S
O77          C86   1.264       .  A
O77         Al84   1.941       .  S
O78         Al84   1.927       .  S
O79          C86   1.253       .  A
O80         Al84   1.781       .  S
O81          C82   1.265       .  A
C82         C301   1.407       .  S
C83         C296   1.429       .  S
C86         C971   1.452       .  S
C87          O88   1.252       .  A
C87         C313   1.443       .  S
O89         C104   1.262       .  A
O89         Al97   1.879       .  S
C90         O100   1.266       .  A
C90          O91   1.263       .  A
C90         C293   1.453       .  S
O91         Al93   1.915       .  S
O92          C94   1.258       .  A
O92         Al93   1.901       .  S
Al93        O101   1.882       .  S
Al93        O103   1.910       .  S
Al93        O102   1.778       .  S
C94         O107   1.246       .  A
C94         C292   1.418       .  S
O95         C105   1.259       .  A
O95         Al97   1.872       .  S
O96         C109   1.262       .  A
O96        Al106   1.941       .  S
Al97        O110   1.894       .  S
Al97        O107   1.872       .  S
Al97        O102   1.788       .  S
O98         C105   1.274       .  A
O98        Al106   1.955       .  S
O99         C108   1.264       .  A
O99        Al106   1.943       .  S
O100       Al106   1.929       .  S
O101        C108   1.253       .  A
O102       Al106   1.781       .  S
O103        C104   1.265       .  A
C104        C289   1.410       .  S
C105        C306   1.430       .  S
C108        C287   1.452       .  S
C109        O110   1.252       .  A
C109        C326   1.442       .  S
O111        C462   1.263       .  A
O111       Al119   1.880       .  S
C112        O122   1.265       .  A
C112        O113   1.263       .  A
C112        C300   1.452       .  S
O113       Al115   1.914       .  S
O114        C116   1.259       .  A
O114       Al115   1.903       .  S
Al115       O123   1.885       .  S
Al115       O125   1.907       .  S
Al115       O124   1.778       .  S
C116        O129   1.247       .  A
C116        C285   1.419       .  S
O117        C127   1.258       .  A
O117       Al119   1.871       .  S
O118        C131   1.262       .  A
O118       Al128   1.940       .  S
Al119       O132   1.894       .  S
Al119       O129   1.873       .  S
Al119       O124   1.788       .  S
O120        C127   1.273       .  A
O120       Al128   1.954       .  S
O121        C130   1.265       .  A
O121       Al128   1.944       .  S
O122       Al128   1.927       .  S
O123        C130   1.254       .  A
O124       Al128   1.782       .  S
O125        C462   1.264       .  A
C126        O447   1.263   1_554  A
C126        O461   1.264   1_554  A
C126        C290   1.411       .  S
C127        C282   1.429       .  S
C130        C283   1.452       .  S
C131        O132   1.253       .  A
C131        C280   1.442       .  S
O133        C148   1.263       .  A
O133       Al141   1.880       .  S
C134        O144   1.265       .  A
C134        O135   1.262       .  A
C134        C277   1.452       .  S
O135       Al137   1.914       .  S
O136        C138   1.259       .  A
O136       Al137   1.903       .  S
Al137       O145   1.885       .  S
Al137       O147   1.907       .  S
Al137       O146   1.778       .  S
C138        O151   1.247       .  A
C138        C331   1.419       .  S
O139        C149   1.258       .  A
O139       Al141   1.871       .  S
O140        C153   1.262       .  A
O140       Al150   1.940       .  S
Al141       O154   1.894       .  S
Al141       O151   1.874       .  S
Al141       O146   1.788       .  S
O142        C149   1.274       .  A
O142       Al150   1.955       .  S
O143        C152   1.265       .  A
O143       Al150   1.945       .  S
O144       Al150   1.927       .  S
O145        C152   1.254       .  A
O146       Al150   1.782       .  S
O147        C148   1.264       .  A
C148        C275   1.410       .  S
C149        C295   1.429       .  S
C152        C294   1.453       .  S
C153        O154   1.253       .  A
C153        C274   1.442       .  S
O155        C170   1.263       .  A
O155       Al163   1.880       .  S
C156        O166   1.265       .  A
C156        O157   1.263       .  A
C156        C334   1.452       .  S
O157       Al159   1.915       .  S
O158        C160   1.259       .  A
O158       Al159   1.903       .  S
Al159       O167   1.885       .  S
Al159       O169   1.907       .  S
Al159       O168   1.778       .  S
C160        O173   1.247       .  A
C160        C272   1.420       .  S
O161        C171   1.258       .  A
O161       Al163   1.872       .  S
O162        C175   1.262       .  A
O162       Al172   1.939       .  S
Al163       O176   1.894       .  S
Al163       O173   1.874       .  S
Al163       O168   1.788       .  S
O164        C171   1.273       .  A
O164       Al172   1.954       .  S
O165        C174   1.265       .  A
O165       Al172   1.944       .  S
O166       Al172   1.926       .  S
O167        C174   1.254       .  A
O168       Al172   1.782       .  S
O169        C170   1.264       .  A
C170        C323   1.410       .  S
C171        C269   1.429       .  S
C174        C311   1.452       .  S
C175        O176   1.253       .  A
C175        C273   1.442       .  S
O177        C192   1.262       .  A
O177       Al185   1.879       .  S
C178        O188   1.266       .  A
C178        O179   1.263       .  A
C178        C284   1.453       .  S
O179       Al517   1.915       .  S
O180        C182   1.258       .  A
O180       Al181   1.902       .  S
Al181       O189   1.882       .  S
Al181       O191   1.909       .  S
Al181       O515   1.915   1_554  S
Al181       O190   1.778       .  S
C182        O195   1.246       .  A
C182        C291   1.418       .  S
O183        C529   1.259   1_554  A
O183       Al185   1.872       .  S
O184        C533   1.262       .  A
O184       Al194   1.942       .  S
Al185       O198   1.894       .  S
Al185       O195   1.872       .  S
Al185       O190   1.788       .  S
O186        C193   1.274       .  A
O186       Al194   1.955       .  S
O187        C532   1.264       .  A
O187       Al194   1.943       .  S
O188       Al194   1.929       .  S
O189        C196   1.253       .  A
O190       Al530   1.781   1_554  S
O191        C192   1.265       .  A
C192        C276   1.410       .  S
C193        O519   1.259       .  A
C193        C315   1.429       .  S
Al194       O526   1.781       .  S
C196        O523   1.264   1_554  A
C196        C329   1.452       .  S
C197        O198   1.252       .  A
C197        O520   1.262       .  A
C197        C268   1.442       .  S
O199        C214   1.263       .  A
O199       Al207   1.877       .  S
C200        O210   1.265       .  A
C200        O201   1.263       .  A
C200        C288   1.453       .  S
O201       Al203   1.913       .  S
O202        C204   1.258       .  A
O202       Al203   1.902       .  S
Al203       O211   1.884       .  S
Al203       O213   1.907       .  S
Al203       O212   1.778       .  S
C204        O217   1.246       .  A
C204        C286   1.420       .  S
O205        C215   1.259       .  A
O205       Al207   1.872       .  S
O206        C219   1.262       .  A
O206       Al216   1.941       .  S
Al207       O220   1.895       .  S
Al207       O217   1.875       .  S
Al207       O212   1.790       .  S
O208        C215   1.274       .  A
O208       Al216   1.955       .  S
O209        C218   1.264       .  A
O209       Al216   1.941       .  S
O210       Al216   1.927       .  S
O211        C218   1.253       .  A
O212       Al216   1.781       .  S
O213        C214   1.265       .  A
C214        C638   1.407   1_554  S
C215        C270   1.429       .  S
C218        C266   1.451       .  S
C219        O220   1.252       .  A
C219        C267   1.442       .  S
O221        C236   1.263       .  A
O221       Al229   1.877       .  S
C222        O232   1.265       .  A
C222        O223   1.263       .  A
C222        C322   1.453       .  S
O223       Al225   1.913       .  S
O224        C226   1.258       .  A
O224       Al225   1.902       .  S
Al225       O233   1.884       .  S
Al225       O235   1.907       .  S
Al225       O234   1.778       .  S
C226        O239   1.247       .  A
C226        C271   1.420       .  S
O227        C237   1.259       .  A
O227       Al229   1.872       .  S
O228        C241   1.262       .  A
O228       Al238   1.941       .  S
Al229       O242   1.895       .  S
Al229       O239   1.875       .  S
Al229       O234   1.790       .  S
O230        C237   1.274       .  A
O230       Al238   1.955       .  S
O231        C240   1.264       .  A
O231       Al238   1.941       .  S
O232       Al238   1.927       .  S
O233        C240   1.253       .  A
O234       Al238   1.781       .  S
O235        C236   1.264       .  A
C236        C336   1.407       .  S
C237        C281   1.429       .  S
C240        C278   1.452       .  S
C241        O242   1.252       .  A
C241        C304   1.442       .  S
O243        C258   1.263       .  A
O243       Al251   1.880       .  S
C244        O254   1.265       .  A
C244        O245   1.263       .  A
C244        C265   1.452       .  S
O245       Al583   1.914   1_554  S
O246        C248   1.259       .  A
O246       Al247   1.903       .  S
Al247       O255   1.885       .  S
Al247       O257   1.907       .  S
Al247       O581   1.914       .  S
Al247       O256   1.778       .  S
C248        O261   1.247       .  A
C248        C298   1.420       .  S
O249        C595   1.258       .  A
O249       Al251   1.872       .  S
O250        C599   1.262       .  A
O250       Al260   1.940   1_556  S
Al251       O264   1.895       .  S
Al251       O261   1.874       .  S
Al251       O256   1.788       .  S
O252        C259   1.273       .  A
O252       Al260   1.954       .  S
O253        C598   1.265   1_554  A
O253       Al260   1.944       .  S
O254       Al260   1.926       .  S
O255        C262   1.254       .  A
O256       Al596   1.782       .  S
O257        C258   1.264       .  A
C258        C310   1.410       .  S
C259        O585   1.258   1_554  A
C259        C328   1.430       .  S
Al260       O592   1.782   1_554  S
C262        O589   1.265       .  A
C262        C320   1.453       .  S
C263        O264   1.253       .  A
C263        O586   1.262       .  A
C263        C279   1.442       .  S
C265       C1610   1.216       .  T
C266       C1609   1.216   1_455  T
C267        C268   1.211       .  T
C269        C270   1.203       .  T
C271        C944   1.199       .  T
C272        C943   1.199       .  T
C273        C274   1.211       .  T
C275        C276   1.191       .  T
C277       C1622   1.216   1_455  T
C278       C1621   1.216       .  T
C279        C280   1.211       .  T
C281        C282   1.202       .  T
C283        C284   1.217       .  T
C285       C1294   1.199       .  T
C286       C1293   1.199   1_554  T
C287        C960   1.216   1_545  T
C288        C959   1.216       .  T
C289        C290   1.192       .  T
C291        C292   1.198       .  T
C293        C294   1.217       .  T
C295        C296   1.203       .  T
C297       C1642   1.199   1_455  T
C298       C1641   1.199       .  T
C299        C758   1.452   1_545  S
C299        C300   1.216       .  T
C301        C302   1.190       .  T
C302        C550   1.407       .  S
C303        C304   1.211       .  T
C305        C306   1.203       .  T
C307       C1652   1.216       .  T
C308       C1651   1.216   1_455  T
C309        C310   1.191       .  T
C311        C312   1.216       .  T
C313        C314   1.211       .  T
C315        C316   1.203       .  T
C317        C318   1.198       .  T
C319        C320   1.217       .  T
C321        C714   1.452   1_545  S
C321        C322   1.216       .  T
C323        C324   1.191       .  T
C325        C326   1.211       .  T
C327        C328   1.203       .  T
C329       C1674   1.216   1_455  T
C330       C1673   1.216       .  T
C331       C1676   1.199   1_455  T
C332       C1675   1.199       .  T
C333       C1006   1.216   1_545  T
C334       C1005   1.216       .  T
C335        C336   1.190       .  T
O337        C352   1.263       .  A
O337       Al345   1.878       .  S
C338        O348   1.265       .  A
C338        O339   1.262       .  A
C338        C666   1.453       .  S
O339       Al341   1.913       .  S
O340        C342   1.258       .  A
O340       Al341   1.902       .  S
Al341       O349   1.884       .  S
Al341       O351   1.907       .  S
Al341       O350   1.778       .  S
C342        O355   1.246       .  A
C342        C668   1.420       .  S
O343        C353   1.259       .  A
O343       Al345   1.872       .  S
O344        C357   1.262       .  A
O344       Al354   1.941       .  S
Al345       O358   1.894       .  S
Al345       O355   1.875       .  S
Al345       O350   1.790       .  S
O346        C353   1.274       .  A
O346       Al354   1.955       .  S
O347        C356   1.264       .  A
O347       Al354   1.941       .  S
O348       Al354   1.927       .  S
O349        C356   1.253       .  A
O350       Al354   1.781       .  S
O351        C352   1.264       .  A
C352        C671   1.407       .  S
C353        C663   1.429       .  S
C356        C669   1.452       .  S
C357        O358   1.252       .  A
C357        C661   1.442       .  S
O359        C374   1.262       .  A
O359       Al367   1.878       .  S
C360        O370   1.266       .  A
C360        O361   1.263       .  A
C360        C655   1.453       .  S
O361       Al363   1.915       .  S
O362        C364   1.258       .  A
O362       Al363   1.901       .  S
Al363       O371   1.883       .  S
Al363       O373   1.909       .  S
Al363       O372   1.778       .  S
C364        O377   1.246       .  A
C364        C653   1.418       .  S
O365        C375   1.259       .  A
O365       Al367   1.872       .  S
O366        C379   1.262       .  A
O366       Al376   1.942       .  S
Al367       O380   1.894       .  S
Al367       O377   1.872       .  S
Al367       O372   1.788       .  S
O368        C375   1.274       .  A
O368       Al376   1.955       .  S
O369        C378   1.264       .  A
O369       Al376   1.943       .  S
O370       Al376   1.929       .  S
O371        C378   1.253       .  A
O372       Al376   1.781       .  S
O373        C374   1.265       .  A
C374        C660   1.410       .  S
C375        C652   1.429       .  S
C378       C1329   1.452       .  S
C379        O380   1.252       .  A
C379        C650   1.443       .  S
O381        C396   1.262       .  A
O381       Al389   1.879       .  S
C382        O392   1.266       .  A
C382        O383   1.263       .  A
C382        C648   1.453       .  S
O383       Al385   1.915       .  S
O384        C386   1.258       .  A
O384       Al385   1.901       .  S
Al385       O393   1.882       .  S
Al385       O395   1.910       .  S
Al385       O394   1.779       .  S
C386        O399   1.246       .  A
C386        C654   1.418       .  S
O387        C397   1.259       .  A
O387       Al389   1.872       .  S
O388        C401   1.262       .  A
O388       Al398   1.941       .  S
Al389       O402   1.894       .  S
Al389       O399   1.872       .  S
Al389       O394   1.789       .  S
O390        C397   1.274       .  A
O390       Al398   1.955       .  S
O391        C400   1.264       .  A
O391       Al398   1.943       .  S
O392       Al398   1.928       .  S
O393        C400   1.253       .  A
O394       Al398   1.781       .  S
O395        C396   1.265       .  A
C396        C645   1.410       .  S
C397        C641   1.430       .  S
C400        C643   1.452       .  S
C401        O402   1.252       .  A
C401        C639   1.442       .  S
O403        C418   1.263       .  A
O403       Al411   1.877       .  S
C404        O414   1.265       .  A
C404        O405   1.263       .  A
C404        C644   1.453       .  S
O405       Al407   1.913       .  S
O406        C408   1.258       .  A
O406       Al407   1.902       .  S
Al407       O415   1.884       .  S
Al407       O417   1.907       .  S
Al407       O416   1.778       .  S
C408        O421   1.247       .  A
C408        C633   1.420       .  S
O409        C419   1.259       .  A
O409       Al411   1.872       .  S
O410        C423   1.262       .  A
O410       Al420   1.942       .  S
Al411       O424   1.895       .  S
Al411       O421   1.876       .  S
Al411       O416   1.790       .  S
O412        C419   1.274       .  A
O412       Al420   1.955       .  S
O413        C422   1.264       .  A
O413       Al420   1.941       .  S
O414       Al420   1.927       .  S
O415        C422   1.253       .  A
O416       Al420   1.781       .  S
O417        C418   1.265       .  A
C418        C637   1.407       .  S
C419        C632   1.429       .  S
C422       C1307   1.452       .  S
C423        O424   1.252       .  A
C423        C649   1.443       .  S
O425        C440   1.262       .  A
O425       Al433   1.879       .  S
C426        O436   1.266       .  A
C426        O427   1.263       .  A
C426        C629   1.453       .  S
O427       Al429   1.915       .  S
O428        C430   1.258       .  A
O428       Al429   1.901       .  S
Al429       O437   1.882       .  S
Al429       O439   1.910       .  S
Al429       O438   1.778       .  S
C430        O443   1.246       .  A
C430        C628   1.418       .  S
O431        C441   1.259       .  A
O431       Al433   1.872       .  S
O432        C445   1.262       .  A
O432       Al442   1.941       .  S
Al433       O446   1.894       .  S
Al433       O443   1.872       .  S
Al433       O438   1.788       .  S
O434        C441   1.274       .  A
O434       Al442   1.955       .  S
O435        C444   1.264       .  A
O435       Al442   1.943       .  S
O436       Al442   1.929       .  S
O437        C444   1.253       .  A
O438       Al442   1.781       .  S
O439        C440   1.265       .  A
C440        C625   1.410       .  S
C441        C642   1.430       .  S
C444        C623   1.452       .  S
C445        O446   1.252       .  A
C445        C662   1.442       .  S
O447       Al455   1.880       .  S
C448        O458   1.265       .  A
C448        O449   1.263       .  A
C448        C636   1.452       .  S
O449       Al451   1.914       .  S
O450        C452   1.259       .  A
O450       Al451   1.903       .  S
Al451       O459   1.885       .  S
Al451       O461   1.907       .  S
Al451       O460   1.778       .  S
C452        O465   1.247       .  A
C452        C621   1.419       .  S
O453        C463   1.258       .  A
O453       Al455   1.871       .  S
O454        C467   1.262       .  A
O454       Al464   1.940       .  S
Al455       O468   1.894       .  S
Al455       O465   1.873       .  S
Al455       O460   1.788       .  S
O456        C463   1.273       .  A
O456       Al464   1.954       .  S
O457        C466   1.265       .  A
O457       Al464   1.944       .  S
O458       Al464   1.927       .  S
O459        C466   1.254       .  A
O460       Al464   1.782       .  S
C462        C626   1.411       .  S
C463        C618   1.429       .  S
C466        C619   1.452       .  S
C467        O468   1.253       .  A
C467        C616   1.442       .  S
O469        C484   1.263       .  A
O469       Al477   1.880       .  S
C470        O480   1.265       .  A
C470        O471   1.262       .  A
C470        C613   1.452       .  S
O471       Al473   1.914       .  S
O472        C474   1.259       .  A
O472       Al473   1.903       .  S
Al473       O481   1.885       .  S
Al473       O483   1.907       .  S
Al473       O482   1.778       .  S
C474        O487   1.247       .  A
C474        C667   1.419       .  S
O475        C485   1.258       .  A
O475       Al477   1.871       .  S
O476        C489   1.262       .  A
O476       Al486   1.940       .  S
Al477       O490   1.894       .  S
Al477       O487   1.874       .  S
Al477       O482   1.788       .  S
O478        C485   1.274       .  A
O478       Al486   1.955       .  S
O479        C488   1.265       .  A
O479       Al486   1.945       .  S
O480       Al486   1.927       .  S
O481        C488   1.254       .  A
O482       Al486   1.782       .  S
O483        C484   1.264       .  A
C484        C611   1.410       .  S
C485        C631   1.429       .  S
C488        C630   1.453       .  S
C489        O490   1.253       .  A
C489        C610   1.442       .  S
O491        C506   1.263       .  A
O491       Al499   1.880       .  S
C492        O502   1.265       .  A
C492        O493   1.263       .  A
C492        C670   1.452       .  S
O493       Al495   1.915       .  S
O494        C496   1.259       .  A
O494       Al495   1.903       .  S
Al495       O503   1.885       .  S
Al495       O505   1.907       .  S
Al495       O504   1.778       .  S
C496        O509   1.247       .  A
C496        C608   1.420       .  S
O497        C507   1.258       .  A
O497       Al499   1.872       .  S
O498        C511   1.262       .  A
O498       Al508   1.939       .  S
Al499       O512   1.894       .  S
Al499       O509   1.874       .  S
Al499       O504   1.788       .  S
O500        C507   1.273       .  A
O500       Al508   1.954       .  S
O501        C510   1.265       .  A
O501       Al508   1.944       .  S
O502       Al508   1.926       .  S
O503        C510   1.254       .  A
O504       Al508   1.782       .  S
O505        C506   1.264       .  A
C506        C659   1.410       .  S
C507        C605   1.429       .  S
C510        C647   1.452       .  S
C511        O512   1.253       .  A
C511        C609   1.442       .  S
O513        C528   1.262       .  A
O513       Al521   1.879       .  S
C514        O524   1.266       .  A
C514        O515   1.263       .  A
C514        C620   1.453       .  S
O516        C518   1.258       .  A
O516       Al517   1.902       .  S
Al517       O525   1.882       .  S
Al517       O527   1.909       .  S
Al517       O526   1.778       .  S
C518        O531   1.246       .  A
C518        C627   1.418       .  S
O519       Al521   1.872       .  S
O520       Al530   1.942   1_554  S
Al521       O534   1.894       .  S
Al521       O531   1.872       .  S
Al521       O526   1.788       .  S
O522        C529   1.274       .  A
O522       Al530   1.955       .  S
O523       Al530   1.943       .  S
O524       Al530   1.929       .  S
O525        C532   1.253       .  A
O527        C528   1.265       .  A
C528        C612   1.410       .  S
C529        C651   1.429       .  S
C532        C665   1.452       .  S
C533        O534   1.252       .  A
C533        C604   1.442       .  S
O535        C550   1.263       .  A
O535       Al543   1.877       .  S
C536        O546   1.265       .  A
C536        O537   1.263       .  A
C536        C624   1.453       .  S
O537       Al539   1.913       .  S
O538        C540   1.258       .  A
O538       Al539   1.902       .  S
Al539       O547   1.884       .  S
Al539       O549   1.907       .  S
Al539       O548   1.778       .  S
C540        O553   1.246       .  A
C540        C622   1.420       .  S
O541        C551   1.259       .  A
O541       Al543   1.872       .  S
O542        C555   1.262       .  A
O542       Al552   1.941       .  S
Al543       O556   1.895       .  S
Al543       O553   1.875       .  S
Al543       O548   1.790       .  S
O544        C551   1.274       .  A
O544       Al552   1.955       .  S
O545        C554   1.264       .  A
O545       Al552   1.941       .  S
O546       Al552   1.927       .  S
O547        C554   1.253       .  A
O548       Al552   1.781       .  S
O549        C550   1.265       .  A
C551        C606   1.429       .  S
C554        C602   1.451       .  S
C555        O556   1.252       .  A
C555        C603   1.442       .  S
O557        C572   1.263       .  A
O557       Al565   1.877       .  S
C558        O568   1.265       .  A
C558        O559   1.263       .  A
C558        C658   1.453       .  S
O559       Al561   1.913       .  S
O560        C562   1.258       .  A
O560       Al561   1.902       .  S
Al561       O569   1.884       .  S
Al561       O571   1.907       .  S
Al561       O570   1.778       .  S
C562        O575   1.247       .  A
C562        C607   1.420       .  S
O563        C573   1.259       .  A
O563       Al565   1.872       .  S
O564        C577   1.262       .  A
O564       Al574   1.941       .  S
Al565       O578   1.895       .  S
Al565       O575   1.875       .  S
Al565       O570   1.790       .  S
O566        C573   1.274       .  A
O566       Al574   1.955       .  S
O567        C576   1.264       .  A
O567       Al574   1.941       .  S
O568       Al574   1.927       .  S
O569        C576   1.253       .  A
O570       Al574   1.781       .  S
O571        C572   1.264       .  A
C572        C672   1.407       .  S
C573        C617   1.429       .  S
C576        C614   1.452       .  S
C577        O578   1.252       .  A
C577        C640   1.442       .  S
O579        C594   1.263       .  A
O579       Al587   1.880       .  S
C580        O590   1.265       .  A
C580        O581   1.263       .  A
C580        C601   1.452       .  S
O582        C584   1.259       .  A
O582       Al583   1.903       .  S
Al583       O591   1.885       .  S
Al583       O593   1.907       .  S
Al583       O592   1.778       .  S
C584        O597   1.247       .  A
C584        C634   1.420       .  S
O585       Al587   1.872       .  S
O586       Al596   1.940       .  S
Al587       O600   1.895       .  S
Al587       O597   1.874       .  S
Al587       O592   1.788       .  S
O588        C595   1.273       .  A
O588       Al596   1.954       .  S
O589       Al596   1.944       .  S
O590       Al596   1.926       .  S
O591        C598   1.254       .  A
O593        C594   1.264       .  A
C594        C646   1.410       .  S
C595        C664   1.430       .  S
C598        C656   1.453       .  S
C599        O600   1.253       .  A
C599        C615   1.442       .  S
C601       C1946   1.216       .  T
C602       C1945   1.216   1_455  T
C603        C604   1.211       .  T
C605        C606   1.203       .  T
C607       C1280   1.199       .  T
C608       C1279   1.199       .  T
C609        C610   1.211       .  T
C611        C612   1.191       .  T
C613       C1958   1.216   1_455  T
C614       C1957   1.216       .  T
C615        C616   1.211       .  T
C617        C618   1.202       .  T
C619        C620   1.217       .  T
C621        C958   1.199   1_556  T
C622        C957   1.199       .  T
C623       C1296   1.216   1_545  T
C624       C1295   1.216       .  T
C625        C626   1.192       .  T
C627        C628   1.198       .  T
C629        C630   1.217       .  T
C631        C632   1.203       .  T
C633       C1978   1.199   1_455  T
C634       C1977   1.199       .  T
C635       C1094   1.452   1_545  S
C635        C636   1.216       .  T
C637        C638   1.190       .  T
C639        C640   1.211       .  T
C641        C642   1.203       .  T
C643       C1988   1.216       .  T
C644       C1987   1.216   1_455  T
C645        C646   1.191       .  T
C647        C648   1.216       .  T
C649        C650   1.211       .  T
C651        C652   1.203       .  T
C653        C654   1.198       .  T
C655        C656   1.217       .  T
C657       C1050   1.452   1_545  S
C657        C658   1.216       .  T
C659        C660   1.191       .  T
C661        C662   1.211       .  T
C663        C664   1.203       .  T
C665       C2010   1.216   1_455  T
C666       C2009   1.216       .  T
C667       C2012   1.199   1_455  T
C668       C2011   1.199       .  T
C669       C1342   1.216   1_545  T
C670       C1341   1.216       .  T
C671        C672   1.190       .  T
O673        C688   1.263       .  A
O673       Al681   1.878       .  S
C674        O684   1.265       .  A
C674        O675   1.262       .  A
C674       C1002   1.453       .  S
O675       Al677   1.913       .  S
O676        C678   1.258       .  A
O676       Al677   1.902       .  S
Al677       O685   1.884       .  S
Al677       O687   1.907       .  S
Al677       O686   1.778       .  S
C678        O691   1.246       .  A
C678       C1004   1.420       .  S
O679        C689   1.259       .  A
O679       Al681   1.872       .  S
O680        C693   1.262       .  A
O680       Al690   1.941       .  S
Al681       O694   1.894       .  S
Al681       O691   1.875       .  S
Al681       O686   1.790       .  S
O682        C689   1.274       .  A
O682       Al690   1.955       .  S
O683        C692   1.264       .  A
O683       Al690   1.941       .  S
O684       Al690   1.927       .  S
O685        C692   1.253       .  A
O686       Al690   1.781       .  S
O687        C688   1.264       .  A
C688       C1007   1.407       .  S
C689        C999   1.429       .  S
C692       C1005   1.452       .  S
C693        O694   1.252       .  A
C693        C997   1.442       .  S
O695        C710   1.262       .  A
O695       Al703   1.878       .  S
C696        O706   1.266       .  A
C696        O697   1.263       .  A
C696        C991   1.453       .  S
O697       Al699   1.915       .  S
O698        C700   1.258       .  A
O698       Al699   1.901       .  S
Al699       O707   1.883       .  S
Al699       O709   1.909       .  S
Al699       O708   1.778       .  S
C700        O713   1.246       .  A
C700        C989   1.418       .  S
O701        C711   1.259       .  A
O701       Al703   1.872       .  S
O702        C715   1.262       .  A
O702       Al712   1.942       .  S
Al703       O716   1.894       .  S
Al703       O713   1.872       .  S
Al703       O708   1.788       .  S
O704        C711   1.274       .  A
O704       Al712   1.955       .  S
O705        C714   1.264       .  A
O705       Al712   1.943       .  S
O706       Al712   1.929       .  S
O707        C714   1.253       .  A
O708       Al712   1.781       .  S
O709        C710   1.265       .  A
C710        C996   1.410       .  S
C711        C988   1.429       .  S
C715        O716   1.252       .  A
C715        C986   1.443       .  S
O717        C732   1.262       .  A
O717       Al725   1.879       .  S
C718        O728   1.266       .  A
C718        O719   1.263       .  A
C718        C984   1.453       .  S
O719       Al721   1.915       .  S
O720        C722   1.258       .  A
O720       Al721   1.901       .  S
Al721       O729   1.882       .  S
Al721       O731   1.910       .  S
Al721       O730   1.779       .  S
C722        O735   1.246       .  A
C722        C990   1.418       .  S
O723        C733   1.259       .  A
O723       Al725   1.872       .  S
O724        C737   1.262       .  A
O724       Al734   1.941       .  S
Al725       O738   1.894       .  S
Al725       O735   1.872       .  S
Al725       O730   1.789       .  S
O726        C733   1.274       .  A
O726       Al734   1.955       .  S
O727        C736   1.264       .  A
O727       Al734   1.943       .  S
O728       Al734   1.928       .  S
O729        C736   1.253       .  A
O730       Al734   1.781       .  S
O731        C732   1.265       .  A
C732        C981   1.410       .  S
C733        C977   1.430       .  S
C736        C979   1.452       .  S
C737        O738   1.252       .  A
C737        C975   1.442       .  S
O739        C754   1.263       .  A
O739       Al747   1.877       .  S
C740        O750   1.265       .  A
C740        O741   1.263       .  A
C740        C980   1.453       .  S
O741       Al743   1.913       .  S
O742        C744   1.258       .  A
O742       Al743   1.902       .  S
Al743       O751   1.884       .  S
Al743       O753   1.907       .  S
Al743       O752   1.778       .  S
C744        O757   1.247       .  A
C744        C969   1.420       .  S
O745        C755   1.259       .  A
O745       Al747   1.872       .  S
O746        C759   1.262       .  A
O746       Al756   1.942       .  S
Al747       O760   1.895       .  S
Al747       O757   1.876       .  S
Al747       O752   1.790       .  S
O748        C755   1.274       .  A
O748       Al756   1.955       .  S
O749        C758   1.264       .  A
O749       Al756   1.941       .  S
O750       Al756   1.927       .  S
O751        C758   1.253       .  A
O752       Al756   1.781       .  S
O753        C754   1.265       .  A
C754        C973   1.407       .  S
C755        C968   1.429       .  S
C759        O760   1.252       .  A
C759        C985   1.443       .  S
O761        C776   1.262       .  A
O761       Al769   1.879       .  S
C762        O772   1.266       .  A
C762        O763   1.263       .  A
C762        C965   1.453       .  S
O763       Al765   1.915       .  S
O764        C766   1.258       .  A
O764       Al765   1.901       .  S
Al765       O773   1.882       .  S
Al765       O775   1.910       .  S
Al765       O774   1.778       .  S
C766        O779   1.246       .  A
C766        C964   1.418       .  S
O767        C777   1.259       .  A
O767       Al769   1.872       .  S
O768        C781   1.262       .  A
O768       Al778   1.941       .  S
Al769       O782   1.894       .  S
Al769       O779   1.872       .  S
Al769       O774   1.788       .  S
O770        C777   1.274       .  A
O770       Al778   1.955       .  S
O771        C780   1.264       .  A
O771       Al778   1.943       .  S
O772       Al778   1.929       .  S
O773        C780   1.253       .  A
O774       Al778   1.781       .  S
O775        C776   1.265       .  A
C776        C961   1.410       .  S
C777        C978   1.430       .  S
C780        C959   1.452       .  S
C781        O782   1.252       .  A
C781        C998   1.442       .  S
O783       C1134   1.263       .  A
O783       Al791   1.880       .  S
C784        O794   1.265       .  A
C784        O785   1.263       .  A
C784        C972   1.452       .  S
O785       Al787   1.914       .  S
O786        C788   1.259       .  A
O786       Al787   1.903       .  S
Al787       O795   1.885       .  S
Al787       O797   1.907       .  S
Al787       O796   1.778       .  S
C788        O801   1.247       .  A
C788        C957   1.419       .  S
O789        C799   1.258       .  A
O789       Al791   1.871       .  S
O790        C803   1.262       .  A
O790       Al800   1.940       .  S
Al791       O804   1.894       .  S
Al791       O801   1.873       .  S
Al791       O796   1.788       .  S
O792        C799   1.273       .  A
O792       Al800   1.954       .  S
O793        C802   1.265       .  A
O793       Al800   1.944       .  S
O794       Al800   1.927       .  S
O795        C802   1.254       .  A
O796       Al800   1.782       .  S
O797       C1134   1.264       .  A
C798       O1119   1.263   1_554  A
C798       O1133   1.264   1_554  A
C798        C962   1.411       .  S
C799        C954   1.429       .  S
C802        C955   1.452       .  S
C803        O804   1.253       .  A
C803        C952   1.442       .  S
O805        C820   1.263       .  A
O805       Al813   1.880       .  S
C806        O816   1.265       .  A
C806        O807   1.262       .  A
C806        C949   1.452       .  S
O807       Al809   1.914       .  S
O808        C810   1.259       .  A
O808       Al809   1.903       .  S
Al809       O817   1.885       .  S
Al809       O819   1.907       .  S
Al809       O818   1.778       .  S
C810        O823   1.247       .  A
C810       C1003   1.419       .  S
O811        C821   1.258       .  A
O811       Al813   1.871       .  S
O812        C825   1.262       .  A
O812       Al822   1.940       .  S
Al813       O826   1.894       .  S
Al813       O823   1.874       .  S
Al813       O818   1.788       .  S
O814        C821   1.274       .  A
O814       Al822   1.955       .  S
O815        C824   1.265       .  A
O815       Al822   1.945       .  S
O816       Al822   1.927       .  S
O817        C824   1.254       .  A
O818       Al822   1.782       .  S
O819        C820   1.264       .  A
C820        C947   1.410       .  S
C821        C967   1.429       .  S
C824        C966   1.453       .  S
C825        O826   1.253       .  A
C825        C946   1.442       .  S
O827        C842   1.263       .  A
O827       Al835   1.880       .  S
C828        O838   1.265       .  A
C828        O829   1.263       .  A
C828       C1006   1.452       .  S
O829       Al831   1.915       .  S
O830        C832   1.259       .  A
O830       Al831   1.903       .  S
Al831       O839   1.885       .  S
Al831       O841   1.907       .  S
Al831       O840   1.778       .  S
C832        O845   1.247       .  A
C832        C944   1.420   1_565  S
O833        C843   1.258       .  A
O833       Al835   1.872       .  S
O834        C847   1.262       .  A
O834       Al844   1.939       .  S
Al835       O848   1.894       .  S
Al835       O845   1.874       .  S
Al835       O840   1.788       .  S
O836        C843   1.273       .  A
O836       Al844   1.954       .  S
O837        C846   1.265       .  A
O837       Al844   1.944       .  S
O838       Al844   1.926       .  S
O839        C846   1.254       .  A
O840       Al844   1.782       .  S
O841        C842   1.264       .  A
C842        C995   1.410       .  S
C843        C941   1.429       .  S
C846        C983   1.452       .  S
C847        O848   1.253       .  A
C847        C945   1.442       .  S
O849        C864   1.262       .  A
O849       Al857   1.879       .  S
C850        O860   1.266       .  A
C850        O851   1.263       .  A
C850        C956   1.453       .  S
O851      Al1189   1.915       .  S
O852        C854   1.258       .  A
O852       Al853   1.902       .  S
Al853      O1187   1.915   1_554  S
Al853       O861   1.882       .  S
Al853       O863   1.909       .  S
Al853       O862   1.778       .  S
C854        O867   1.246       .  A
C854        C963   1.418       .  S
O855       C1201   1.259   1_554  A
O855       Al857   1.872       .  S
O856       C1205   1.262       .  A
O856       Al866   1.942       .  S
Al857       O870   1.894       .  S
Al857       O867   1.872       .  S
Al857       O862   1.788       .  S
O858        C865   1.274       .  A
O858       Al866   1.955       .  S
O859       C1204   1.264       .  A
O859       Al866   1.943       .  S
O860       Al866   1.929       .  S
O861        C868   1.253       .  A
O862      Al1202   1.781   1_554  S
O863        C864   1.265       .  A
C864        C948   1.410       .  S
C865       O1191   1.259       .  A
C865        C987   1.429       .  S
Al866      O1198   1.781       .  S
C868       O1195   1.264   1_554  A
C868       C1001   1.452       .  S
C869       O1192   1.262       .  A
C869        O870   1.252       .  A
C869        C940   1.442       .  S
O871        C886   1.263       .  A
O871       Al879   1.877       .  S
C872        O882   1.265       .  A
C872        O873   1.263       .  A
C872        C960   1.453       .  S
O873       Al875   1.913       .  S
O874        C876   1.258       .  A
O874       Al875   1.902       .  S
Al875       O883   1.884       .  S
Al875       O885   1.907       .  S
Al875       O884   1.778       .  S
C876        O889   1.246       .  A
C876        C958   1.420   1_565  S
O877        C887   1.259       .  A
O877       Al879   1.872       .  S
O878        C891   1.262       .  A
O878       Al888   1.941       .  S
Al879       O892   1.895       .  S
Al879       O889   1.875       .  S
Al879       O884   1.790       .  S
O880        C887   1.274       .  A
O880       Al888   1.955       .  S
O881        C890   1.264       .  A
O881       Al888   1.941       .  S
O882       Al888   1.927       .  S
O883        C890   1.253       .  A
O884       Al888   1.781       .  S
O885        C886   1.265       .  A
C886       C1310   1.407   1_554  S
C887        C942   1.429       .  S
C890        C938   1.451       .  S
C891        O892   1.252       .  A
C891        C939   1.442       .  S
O893        C908   1.263       .  A
O893       Al901   1.877       .  S
C894        O904   1.265       .  A
C894        O895   1.263       .  A
C894        C994   1.453       .  S
O895       Al897   1.913       .  S
O896        C898   1.258       .  A
O896       Al897   1.902       .  S
Al897       O905   1.884       .  S
Al897       O907   1.907       .  S
Al897       O906   1.778       .  S
C898        O911   1.247       .  A
C898        C943   1.420       .  S
O899        C909   1.259       .  A
O899       Al901   1.872       .  S
O900        C913   1.262       .  A
O900       Al910   1.941       .  S
Al901       O914   1.895       .  S
Al901       O911   1.875       .  S
Al901       O906   1.790       .  S
O902        C909   1.274       .  A
O902       Al910   1.955       .  S
O903        C912   1.264       .  A
O903       Al910   1.941       .  S
O904       Al910   1.927       .  S
O905        C912   1.253       .  A
O906       Al910   1.781       .  S
O907        C908   1.264       .  A
C908       C1008   1.407       .  S
C909        C953   1.429       .  S
C912        C950   1.452       .  S
C913        O914   1.252       .  A
C913        C976   1.442       .  S
O915        C930   1.263       .  A
O915       Al923   1.880       .  S
C916        O926   1.265       .  A
C916        O917   1.263       .  A
C916        C937   1.452       .  S
O917      Al1255   1.914   1_554  S
O918        C920   1.259       .  A
O918       Al919   1.903       .  S
Al919      O1253   1.914       .  S
Al919       O927   1.885       .  S
Al919       O929   1.907       .  S
Al919       O928   1.778       .  S
C920        O933   1.247       .  A
C920        C970   1.420       .  S
O921       C1267   1.258       .  A
O921       Al923   1.872       .  S
O922       C1271   1.262       .  A
O922       Al932   1.940   1_556  S
Al923       O936   1.895       .  S
Al923       O933   1.874       .  S
Al923       O928   1.788       .  S
O924        C931   1.273       .  A
O924       Al932   1.954       .  S
O925       C1270   1.265   1_554  A
O925       Al932   1.944       .  S
O926       Al932   1.926       .  S
O927        C934   1.254       .  A
O928      Al1268   1.782       .  S
O929        C930   1.264       .  A
C930        C982   1.410       .  S
C931       O1257   1.258   1_554  A
C931       C1000   1.430       .  S
Al932      O1264   1.782   1_554  S
C934       O1261   1.265       .  A
C934        C992   1.453       .  S
C935       O1258   1.262       .  A
C935        O936   1.253       .  A
C935        C951   1.442       .  S
C937       C2282   1.216       .  T
C938       C2281   1.216   1_455  T
C939        C940   1.211       .  T
C941        C942   1.203       .  T
C945        C946   1.211       .  T
C947        C948   1.191       .  T
C949       C2294   1.216   1_455  T
C950       C2293   1.216       .  T
C951        C952   1.211       .  T
C953        C954   1.202       .  T
C955        C956   1.217       .  T
C961        C962   1.192       .  T
C963        C964   1.198       .  T
C965        C966   1.217       .  T
C967        C968   1.203       .  T
C969       C2314   1.199   1_455  T
C970       C2313   1.199       .  T
C971        C972   1.216       .  T
C973        C974   1.190       .  T
C974       C1222   1.407       .  S
C975        C976   1.211       .  T
C977        C978   1.203       .  T
C979       C2324   1.216       .  T
C980       C2323   1.216   1_455  T
C981        C982   1.191       .  T
C983        C984   1.216       .  T
C985        C986   1.211       .  T
C987        C988   1.203       .  T
C989        C990   1.198       .  T
C991        C992   1.217       .  T
C993        C994   1.216       .  T
C995        C996   1.191       .  T
C997        C998   1.211       .  T
C999       C1000   1.203       .  T
C1001      C2346   1.216   1_455  T
C1002      C2345   1.216       .  T
C1003      C2348   1.199   1_455  T
C1004      C2347   1.199       .  T
C1007      C1008   1.190       .  T
O1009      C1024   1.263       .  A
O1009     Al1017   1.878       .  S
C1010      O1020   1.265       .  A
C1010      O1011   1.262       .  A
C1010      C1338   1.453       .  S
O1011     Al1013   1.913       .  S
O1012      C1014   1.258       .  A
O1012     Al1013   1.902       .  S
Al1013     O1021   1.884       .  S
Al1013     O1023   1.907       .  S
Al1013     O1022   1.778       .  S
C1014      O1027   1.246       .  A
C1014      C1340   1.420       .  S
O1015      C1025   1.259       .  A
O1015     Al1017   1.872       .  S
O1016      C1029   1.262       .  A
O1016     Al1026   1.941       .  S
Al1017     O1030   1.894       .  S
Al1017     O1027   1.875       .  S
Al1017     O1022   1.790       .  S
O1018      C1025   1.274       .  A
O1018     Al1026   1.955       .  S
O1019      C1028   1.264       .  A
O1019     Al1026   1.941       .  S
O1020     Al1026   1.927       .  S
O1021      C1028   1.253       .  A
O1022     Al1026   1.781       .  S
O1023      C1024   1.264       .  A
C1024      C1343   1.407       .  S
C1025      C1335   1.429       .  S
C1028      C1341   1.452       .  S
C1029      O1030   1.252       .  A
C1029      C1333   1.442       .  S
O1031      C1046   1.262       .  A
O1031     Al1039   1.878       .  S
C1032      O1042   1.266       .  A
C1032      O1033   1.263       .  A
C1032      C1327   1.453       .  S
O1033     Al1035   1.915       .  S
O1034      C1036   1.258       .  A
O1034     Al1035   1.901       .  S
Al1035     O1043   1.883       .  S
Al1035     O1045   1.909       .  S
Al1035     O1044   1.778       .  S
C1036      O1049   1.246       .  A
C1036      C1325   1.418       .  S
O1037      C1047   1.259       .  A
O1037     Al1039   1.872       .  S
O1038      C1051   1.262       .  A
O1038     Al1048   1.942       .  S
Al1039     O1052   1.894       .  S
Al1039     O1049   1.872       .  S
Al1039     O1044   1.788       .  S
O1040      C1047   1.274       .  A
O1040     Al1048   1.955       .  S
O1041      C1050   1.264       .  A
O1041     Al1048   1.943       .  S
O1042     Al1048   1.929       .  S
O1043      C1050   1.253       .  A
O1044     Al1048   1.781       .  S
O1045      C1046   1.265       .  A
C1046      C1332   1.410       .  S
C1047      C1324   1.429       .  S
C1051      O1052   1.252       .  A
C1051      C1322   1.443       .  S
O1053      C1068   1.262       .  A
O1053     Al1061   1.879       .  S
C1054      O1064   1.266       .  A
C1054      O1055   1.263       .  A
C1054      C1320   1.453       .  S
O1055     Al1057   1.915       .  S
O1056      C1058   1.258       .  A
O1056     Al1057   1.901       .  S
Al1057     O1065   1.882       .  S
Al1057     O1067   1.910       .  S
Al1057     O1066   1.779       .  S
C1058      O1071   1.246       .  A
C1058      C1326   1.418       .  S
O1059      C1069   1.259       .  A
O1059     Al1061   1.872       .  S
O1060      C1073   1.262       .  A
O1060     Al1070   1.941       .  S
Al1061     O1074   1.894       .  S
Al1061     O1071   1.872       .  S
Al1061     O1066   1.789       .  S
O1062      C1069   1.274       .  A
O1062     Al1070   1.955       .  S
O1063      C1072   1.264       .  A
O1063     Al1070   1.943       .  S
O1064     Al1070   1.928       .  S
O1065      C1072   1.253       .  A
O1066     Al1070   1.781       .  S
O1067      C1068   1.265       .  A
C1068      C1317   1.410       .  S
C1069      C1313   1.430       .  S
C1072      C1315   1.452       .  S
C1073      O1074   1.252       .  A
C1073      C1311   1.442       .  S
O1075      C1090   1.263       .  A
O1075     Al1083   1.877       .  S
C1076      O1086   1.265       .  A
C1076      O1077   1.263       .  A
C1076      C1316   1.453       .  S
O1077     Al1079   1.913       .  S
O1078      C1080   1.258       .  A
O1078     Al1079   1.902       .  S
Al1079     O1087   1.884       .  S
Al1079     O1089   1.907       .  S
Al1079     O1088   1.778       .  S
C1080      O1093   1.247       .  A
C1080      C1305   1.420       .  S
O1081      C1091   1.259       .  A
O1081     Al1083   1.872       .  S
O1082      C1095   1.262       .  A
O1082     Al1092   1.942       .  S
Al1083     O1096   1.895       .  S
Al1083     O1093   1.876       .  S
Al1083     O1088   1.790       .  S
O1084      C1091   1.274       .  A
O1084     Al1092   1.955       .  S
O1085      C1094   1.264       .  A
O1085     Al1092   1.941       .  S
O1086     Al1092   1.927       .  S
O1087      C1094   1.253       .  A
O1088     Al1092   1.781       .  S
O1089      C1090   1.265       .  A
C1090      C1309   1.407       .  S
C1091      C1304   1.429       .  S
C1095      O1096   1.252       .  A
C1095      C1321   1.443       .  S
O1097      C1112   1.262       .  A
O1097     Al1105   1.879       .  S
C1098      O1108   1.266       .  A
C1098      O1099   1.263       .  A
C1098      C1301   1.453       .  S
O1099     Al1101   1.915       .  S
O1100      C1102   1.258       .  A
O1100     Al1101   1.901       .  S
Al1101     O1109   1.882       .  S
Al1101     O1111   1.910       .  S
Al1101     O1110   1.778       .  S
C1102      O1115   1.246       .  A
C1102      C1300   1.418       .  S
O1103      C1113   1.259       .  A
O1103     Al1105   1.872       .  S
O1104      C1117   1.262       .  A
O1104     Al1114   1.941       .  S
Al1105     O1118   1.894       .  S
Al1105     O1115   1.872       .  S
Al1105     O1110   1.788       .  S
O1106      C1113   1.274       .  A
O1106     Al1114   1.955       .  S
O1107      C1116   1.264       .  A
O1107     Al1114   1.943       .  S
O1108     Al1114   1.929       .  S
O1109      C1116   1.253       .  A
O1110     Al1114   1.781       .  S
O1111      C1112   1.265       .  A
C1112      C1297   1.410       .  S
C1113      C1314   1.430       .  S
C1116      C1295   1.452       .  S
C1117      O1118   1.252       .  A
C1117      C1334   1.442       .  S
O1119     Al1127   1.880       .  S
C1120      O1130   1.265       .  A
C1120      O1121   1.263       .  A
C1120      C1308   1.452       .  S
O1121     Al1123   1.914       .  S
O1122      C1124   1.259       .  A
O1122     Al1123   1.903       .  S
Al1123     O1131   1.885       .  S
Al1123     O1133   1.907       .  S
Al1123     O1132   1.778       .  S
C1124      O1137   1.247       .  A
C1124      C1293   1.419       .  S
O1125      C1135   1.258       .  A
O1125     Al1127   1.871       .  S
O1126      C1139   1.262       .  A
O1126     Al1136   1.940       .  S
Al1127     O1140   1.894       .  S
Al1127     O1137   1.873       .  S
Al1127     O1132   1.788       .  S
O1128      C1135   1.273       .  A
O1128     Al1136   1.954       .  S
O1129      C1138   1.265       .  A
O1129     Al1136   1.944       .  S
O1130     Al1136   1.927       .  S
O1131      C1138   1.254       .  A
O1132     Al1136   1.782       .  S
C1134      C1298   1.411       .  S
C1135      C1290   1.429       .  S
C1138      C1291   1.452       .  S
C1139      O1140   1.253       .  A
C1139      C1288   1.442       .  S
O1141      C1156   1.263       .  A
O1141     Al1149   1.880       .  S
C1142      O1152   1.265       .  A
C1142      O1143   1.262       .  A
C1142      C1285   1.452       .  S
O1143     Al1145   1.914       .  S
O1144      C1146   1.259       .  A
O1144     Al1145   1.903       .  S
Al1145     O1153   1.885       .  S
Al1145     O1155   1.907       .  S
Al1145     O1154   1.778       .  S
C1146      O1159   1.247       .  A
C1146      C1339   1.419       .  S
O1147      C1157   1.258       .  A
O1147     Al1149   1.871       .  S
O1148      C1161   1.262       .  A
O1148     Al1158   1.940       .  S
Al1149     O1162   1.894       .  S
Al1149     O1159   1.874       .  S
Al1149     O1154   1.788       .  S
O1150      C1157   1.274       .  A
O1150     Al1158   1.955       .  S
O1151      C1160   1.265       .  A
O1151     Al1158   1.945       .  S
O1152     Al1158   1.927       .  S
O1153      C1160   1.254       .  A
O1154     Al1158   1.782       .  S
O1155      C1156   1.264       .  A
C1156      C1283   1.410       .  S
C1157      C1303   1.429       .  S
C1160      C1302   1.453       .  S
C1161      O1162   1.253       .  A
C1161      C1282   1.442       .  S
O1163      C1178   1.263       .  A
O1163     Al1171   1.880       .  S
C1164      O1174   1.265       .  A
C1164      O1165   1.263       .  A
C1164      C1342   1.452       .  S
O1165     Al1167   1.915       .  S
O1166      C1168   1.259       .  A
O1166     Al1167   1.903       .  S
Al1167     O1175   1.885       .  S
Al1167     O1177   1.907       .  S
Al1167     O1176   1.778       .  S
C1168      O1181   1.247       .  A
C1168      C1280   1.420   1_565  S
O1169      C1179   1.258       .  A
O1169     Al1171   1.872       .  S
O1170      C1183   1.262       .  A
O1170     Al1180   1.939       .  S
Al1171     O1184   1.894       .  S
Al1171     O1181   1.874       .  S
Al1171     O1176   1.788       .  S
O1172      C1179   1.273       .  A
O1172     Al1180   1.954       .  S
O1173      C1182   1.265       .  A
O1173     Al1180   1.944       .  S
O1174     Al1180   1.926       .  S
O1175      C1182   1.254       .  A
O1176     Al1180   1.782       .  S
O1177      C1178   1.264       .  A
C1178      C1331   1.410       .  S
C1179      C1277   1.429       .  S
C1182      C1319   1.452       .  S
C1183      O1184   1.253       .  A
C1183      C1281   1.442       .  S
O1185      C1200   1.262       .  A
O1185     Al1193   1.879       .  S
C1186      O1196   1.266       .  A
C1186      O1187   1.263       .  A
C1186      C1292   1.453       .  S
O1188      C1190   1.258       .  A
O1188     Al1189   1.902       .  S
Al1189     O1197   1.882       .  S
Al1189     O1199   1.909       .  S
Al1189     O1198   1.778       .  S
C1190      O1203   1.246       .  A
C1190      C1299   1.418       .  S
O1191     Al1193   1.872       .  S
O1192     Al1202   1.942   1_554  S
Al1193     O1206   1.894       .  S
Al1193     O1203   1.872       .  S
Al1193     O1198   1.788       .  S
O1194      C1201   1.274       .  A
O1194     Al1202   1.955       .  S
O1195     Al1202   1.943       .  S
O1196     Al1202   1.929       .  S
O1197      C1204   1.253       .  A
O1199      C1200   1.265       .  A
C1200      C1284   1.410       .  S
C1201      C1323   1.429       .  S
C1204      C1337   1.452       .  S
C1205      O1206   1.252       .  A
C1205      C1276   1.442       .  S
O1207      C1222   1.263       .  A
O1207     Al1215   1.877       .  S
C1208      O1218   1.265       .  A
C1208      O1209   1.263       .  A
C1208      C1296   1.453       .  S
O1209     Al1211   1.913       .  S
O1210      C1212   1.258       .  A
O1210     Al1211   1.902       .  S
Al1211     O1219   1.884       .  S
Al1211     O1221   1.907       .  S
Al1211     O1220   1.778       .  S
C1212      O1225   1.246       .  A
C1212      C1294   1.420   1_565  S
O1213      C1223   1.259       .  A
O1213     Al1215   1.872       .  S
O1214      C1227   1.262       .  A
O1214     Al1224   1.941       .  S
Al1215     O1228   1.895       .  S
Al1215     O1225   1.875       .  S
Al1215     O1220   1.790       .  S
O1216      C1223   1.274       .  A
O1216     Al1224   1.955       .  S
O1217      C1226   1.264       .  A
O1217     Al1224   1.941       .  S
O1218     Al1224   1.927       .  S
O1219      C1226   1.253       .  A
O1220     Al1224   1.781       .  S
O1221      C1222   1.265       .  A
C1223      C1278   1.429       .  S
C1226      C1274   1.451       .  S
C1227      O1228   1.252       .  A
C1227      C1275   1.442       .  S
O1229      C1244   1.263       .  A
O1229     Al1237   1.877       .  S
C1230      O1240   1.265       .  A
C1230      O1231   1.263       .  A
C1230      C1330   1.453       .  S
O1231     Al1233   1.913       .  S
O1232      C1234   1.258       .  A
O1232     Al1233   1.902       .  S
Al1233     O1241   1.884       .  S
Al1233     O1243   1.907       .  S
Al1233     O1242   1.778       .  S
C1234      O1247   1.247       .  A
C1234      C1279   1.420       .  S
O1235      C1245   1.259       .  A
O1235     Al1237   1.872       .  S
O1236      C1249   1.262       .  A
O1236     Al1246   1.941       .  S
Al1237     O1250   1.895       .  S
Al1237     O1247   1.875       .  S
Al1237     O1242   1.790       .  S
O1238      C1245   1.274       .  A
O1238     Al1246   1.955       .  S
O1239      C1248   1.264       .  A
O1239     Al1246   1.941       .  S
O1240     Al1246   1.927       .  S
O1241      C1248   1.253       .  A
O1242     Al1246   1.781       .  S
O1243      C1244   1.264       .  A
C1244      C1344   1.407       .  S
C1245      C1289   1.429       .  S
C1248      C1286   1.452       .  S
C1249      O1250   1.252       .  A
C1249      C1312   1.442       .  S
O1251      C1266   1.263       .  A
O1251     Al1259   1.880       .  S
C1252      O1262   1.265       .  A
C1252      O1253   1.263       .  A
C1252      C1273   1.452       .  S
O1254      C1256   1.259       .  A
O1254     Al1255   1.903       .  S
Al1255     O1263   1.885       .  S
Al1255     O1265   1.907       .  S
Al1255     O1264   1.778       .  S
C1256      O1269   1.247       .  A
C1256      C1306   1.420       .  S
O1257     Al1259   1.872       .  S
O1258     Al1268   1.940       .  S
Al1259     O1272   1.895       .  S
Al1259     O1269   1.874       .  S
Al1259     O1264   1.788       .  S
O1260      C1267   1.273       .  A
O1260     Al1268   1.954       .  S
O1261     Al1268   1.944       .  S
O1262     Al1268   1.926       .  S
O1263      C1270   1.254       .  A
O1265      C1266   1.264       .  A
C1266      C1318   1.410       .  S
C1267      C1336   1.430       .  S
C1270      C1328   1.453       .  S
C1271      O1272   1.253       .  A
C1271      C1287   1.442       .  S
C1273      C2618   1.216       .  T
C1274      C2617   1.216   1_455  T
C1275      C1276   1.211       .  T
C1277      C1278   1.203       .  T
C1281      C1282   1.211       .  T
C1283      C1284   1.191       .  T
C1285      C2630   1.216   1_455  T
C1286      C2629   1.216       .  T
C1287      C1288   1.211       .  T
C1289      C1290   1.202       .  T
C1291      C1292   1.217       .  T
C1297      C1298   1.192       .  T
C1299      C1300   1.198       .  T
C1301      C1302   1.217       .  T
C1303      C1304   1.203       .  T
C1305      C2650   1.199   1_455  T
C1306      C2649   1.199       .  T
C1307      C1308   1.216       .  T
C1309      C1310   1.190       .  T
C1311      C1312   1.211       .  T
C1313      C1314   1.203       .  T
C1315      C2660   1.216       .  T
C1316      C2659   1.216   1_455  T
C1317      C1318   1.191       .  T
C1319      C1320   1.216       .  T
C1321      C1322   1.211       .  T
C1323      C1324   1.203       .  T
C1325      C1326   1.198       .  T
C1327      C1328   1.217       .  T
C1329      C1330   1.216       .  T
C1331      C1332   1.191       .  T
C1333      C1334   1.211       .  T
C1335      C1336   1.203       .  T
C1337      C2682   1.216   1_455  T
C1338      C2681   1.216       .  T
C1339      C2684   1.199   1_455  T
C1340      C2683   1.199       .  T
C1343      C1344   1.190       .  T
O1345      C1360   1.263       .  A
O1345     Al1353   1.878       .  S
C1346      O1356   1.265       .  A
C1346      O1347   1.262       .  A
C1346      C1674   1.453       .  S
O1347     Al1349   1.913       .  S
O1348      C1350   1.258       .  A
O1348     Al1349   1.902       .  S
Al1349     O1357   1.884       .  S
Al1349     O1359   1.907       .  S
Al1349     O1358   1.778       .  S
C1350      O1363   1.246       .  A
C1350      C1676   1.420       .  S
O1351      C1361   1.259       .  A
O1351     Al1353   1.872       .  S
O1352      C1365   1.262       .  A
O1352     Al1362   1.941       .  S
Al1353     O1366   1.894       .  S
Al1353     O1363   1.875       .  S
Al1353     O1358   1.790       .  S
O1354      C1361   1.274       .  A
O1354     Al1362   1.955       .  S
O1355      C1364   1.264       .  A
O1355     Al1362   1.941       .  S
O1356     Al1362   1.927       .  S
O1357      C1364   1.253       .  A
O1358     Al1362   1.781       .  S
O1359      C1360   1.264       .  A
C1360      C1679   1.407       .  S
C1361      C1671   1.429       .  S
C1364      C1677   1.452       .  S
C1365      O1366   1.252       .  A
C1365      C1669   1.442       .  S
O1367      C1382   1.262       .  A
O1367     Al1375   1.878       .  S
C1368      O1378   1.266       .  A
C1368      O1369   1.263       .  A
C1368      C1663   1.453       .  S
O1369     Al1371   1.915       .  S
O1370      C1372   1.258       .  A
O1370     Al1371   1.901       .  S
Al1371     O1379   1.883       .  S
Al1371     O1381   1.909       .  S
Al1371     O1380   1.778       .  S
C1372      O1385   1.246       .  A
C1372      C1661   1.418       .  S
O1373      C1383   1.259       .  A
O1373     Al1375   1.872       .  S
O1374      C1387   1.262       .  A
O1374     Al1384   1.942       .  S
Al1375     O1388   1.894       .  S
Al1375     O1385   1.872       .  S
Al1375     O1380   1.788       .  S
O1376      C1383   1.274       .  A
O1376     Al1384   1.955       .  S
O1377      C1386   1.264       .  A
O1377     Al1384   1.943       .  S
O1378     Al1384   1.929       .  S
O1379      C1386   1.253       .  A
O1380     Al1384   1.781       .  S
O1381      C1382   1.265       .  A
C1382      C1668   1.410       .  S
C1383      C1660   1.429       .  S
C1386      C2337   1.452       .  S
C1387      O1388   1.252       .  A
C1387      C1658   1.443       .  S
O1389      C1404   1.262       .  A
O1389     Al1397   1.879       .  S
C1390      O1400   1.266       .  A
C1390      O1391   1.263       .  A
C1390      C1656   1.453       .  S
O1391     Al1393   1.915       .  S
O1392      C1394   1.258       .  A
O1392     Al1393   1.901       .  S
Al1393     O1401   1.882       .  S
Al1393     O1403   1.910       .  S
Al1393     O1402   1.779       .  S
C1394      O1407   1.246       .  A
C1394      C1662   1.418       .  S
O1395      C1405   1.259       .  A
O1395     Al1397   1.872       .  S
O1396      C1409   1.262       .  A
O1396     Al1406   1.941       .  S
Al1397     O1410   1.894       .  S
Al1397     O1407   1.872       .  S
Al1397     O1402   1.789       .  S
O1398      C1405   1.274       .  A
O1398     Al1406   1.955       .  S
O1399      C1408   1.264       .  A
O1399     Al1406   1.943       .  S
O1400     Al1406   1.928       .  S
O1401      C1408   1.253       .  A
O1402     Al1406   1.781       .  S
O1403      C1404   1.265       .  A
C1404      C1653   1.410       .  S
C1405      C1649   1.430       .  S
C1408      C1651   1.452       .  S
C1409      O1410   1.252       .  A
C1409      C1647   1.442       .  S
O1411      C1426   1.263       .  A
O1411     Al1419   1.877       .  S
C1412      O1422   1.265       .  A
C1412      O1413   1.263       .  A
C1412      C1652   1.453       .  S
O1413     Al1415   1.913       .  S
O1414      C1416   1.258       .  A
O1414     Al1415   1.902       .  S
Al1415     O1423   1.884       .  S
Al1415     O1425   1.907       .  S
Al1415     O1424   1.778       .  S
C1416      O1429   1.247       .  A
C1416      C1641   1.420       .  S
O1417      C1427   1.259       .  A
O1417     Al1419   1.872       .  S
O1418      C1431   1.262       .  A
O1418     Al1428   1.942       .  S
Al1419     O1432   1.895       .  S
Al1419     O1429   1.876       .  S
Al1419     O1424   1.790       .  S
O1420      C1427   1.274       .  A
O1420     Al1428   1.955       .  S
O1421      C1430   1.264       .  A
O1421     Al1428   1.941       .  S
O1422     Al1428   1.927       .  S
O1423      C1430   1.253       .  A
O1424     Al1428   1.781       .  S
O1425      C1426   1.265       .  A
C1426      C1645   1.407       .  S
C1427      C1640   1.429       .  S
C1430      C2315   1.452       .  S
C1431      O1432   1.252       .  A
C1431      C1657   1.443       .  S
O1433      C1448   1.262       .  A
O1433     Al1441   1.879       .  S
C1434      O1444   1.266       .  A
C1434      O1435   1.263       .  A
C1434      C1637   1.453       .  S
O1435     Al1437   1.915       .  S
O1436      C1438   1.258       .  A
O1436     Al1437   1.901       .  S
Al1437     O1445   1.882       .  S
Al1437     O1447   1.910       .  S
Al1437     O1446   1.778       .  S
C1438      O1451   1.246       .  A
C1438      C1636   1.418       .  S
O1439      C1449   1.259       .  A
O1439     Al1441   1.872       .  S
O1440      C1453   1.262       .  A
O1440     Al1450   1.941       .  S
Al1441     O1454   1.894       .  S
Al1441     O1451   1.872       .  S
Al1441     O1446   1.788       .  S
O1442      C1449   1.274       .  A
O1442     Al1450   1.955       .  S
O1443      C1452   1.264       .  A
O1443     Al1450   1.943       .  S
O1444     Al1450   1.929       .  S
O1445      C1452   1.253       .  A
O1446     Al1450   1.781       .  S
O1447      C1448   1.265       .  A
C1448      C1633   1.410       .  S
C1449      C1650   1.430       .  S
C1452      C1631   1.452       .  S
C1453      O1454   1.252       .  A
C1453      C1670   1.442       .  S
O1455      C1806   1.263       .  A
O1455     Al1463   1.880       .  S
C1456      O1466   1.265       .  A
C1456      O1457   1.263       .  A
C1456      C1644   1.452       .  S
O1457     Al1459   1.914       .  S
O1458      C1460   1.259       .  A
O1458     Al1459   1.903       .  S
Al1459     O1467   1.885       .  S
Al1459     O1469   1.907       .  S
Al1459     O1468   1.778       .  S
C1460      O1473   1.247       .  A
C1460      C1629   1.419       .  S
O1461      C1471   1.258       .  A
O1461     Al1463   1.871       .  S
O1462      C1475   1.262       .  A
O1462     Al1472   1.940       .  S
Al1463     O1476   1.894       .  S
Al1463     O1473   1.873       .  S
Al1463     O1468   1.788       .  S
O1464      C1471   1.273       .  A
O1464     Al1472   1.954       .  S
O1465      C1474   1.265       .  A
O1465     Al1472   1.944       .  S
O1466     Al1472   1.927       .  S
O1467      C1474   1.254       .  A
O1468     Al1472   1.782       .  S
O1469      C1806   1.264       .  A
C1470      O1791   1.263   1_554  A
C1470      O1805   1.264   1_554  A
C1470      C1634   1.411       .  S
C1471      C1626   1.429       .  S
C1474      C1627   1.452       .  S
C1475      O1476   1.253       .  A
C1475      C1624   1.442       .  S
O1477      C1492   1.263       .  A
O1477     Al1485   1.880       .  S
C1478      O1488   1.265       .  A
C1478      O1479   1.262       .  A
C1478      C1621   1.452       .  S
O1479     Al1481   1.914       .  S
O1480      C1482   1.259       .  A
O1480     Al1481   1.903       .  S
Al1481     O1489   1.885       .  S
Al1481     O1491   1.907       .  S
Al1481     O1490   1.778       .  S
C1482      O1495   1.247       .  A
C1482      C1675   1.419       .  S
O1483      C1493   1.258       .  A
O1483     Al1485   1.871       .  S
O1484      C1497   1.262       .  A
O1484     Al1494   1.940       .  S
Al1485     O1498   1.894       .  S
Al1485     O1495   1.874       .  S
Al1485     O1490   1.788       .  S
O1486      C1493   1.274       .  A
O1486     Al1494   1.955       .  S
O1487      C1496   1.265       .  A
O1487     Al1494   1.945       .  S
O1488     Al1494   1.927       .  S
O1489      C1496   1.254       .  A
O1490     Al1494   1.782       .  S
O1491      C1492   1.264       .  A
C1492      C1619   1.410       .  S
C1493      C1639   1.429       .  S
C1496      C1638   1.453       .  S
C1497      O1498   1.253       .  A
C1497      C1618   1.442       .  S
O1499      C1514   1.263       .  A
O1499     Al1507   1.880       .  S
C1500      O1510   1.265       .  A
C1500      O1501   1.263       .  A
C1500      C1678   1.452       .  S
O1501     Al1503   1.915       .  S
O1502      C1504   1.259       .  A
O1502     Al1503   1.903       .  S
Al1503     O1511   1.885       .  S
Al1503     O1513   1.907       .  S
Al1503     O1512   1.778       .  S
C1504      O1517   1.247       .  A
C1504      C1616   1.420       .  S
O1505      C1515   1.258       .  A
O1505     Al1507   1.872       .  S
O1506      C1519   1.262       .  A
O1506     Al1516   1.939       .  S
Al1507     O1520   1.894       .  S
Al1507     O1517   1.874       .  S
Al1507     O1512   1.788       .  S
O1508      C1515   1.273       .  A
O1508     Al1516   1.954       .  S
O1509      C1518   1.265       .  A
O1509     Al1516   1.944       .  S
O1510     Al1516   1.926       .  S
O1511      C1518   1.254       .  A
O1512     Al1516   1.782       .  S
O1513      C1514   1.264       .  A
C1514      C1667   1.410       .  S
C1515      C1613   1.429       .  S
C1518      C1655   1.452       .  S
C1519      O1520   1.253       .  A
C1519      C1617   1.442       .  S
O1521      C1536   1.262       .  A
O1521     Al1529   1.879       .  S
C1522      O1532   1.266       .  A
C1522      O1523   1.263       .  A
C1522      C1628   1.453       .  S
O1523     Al1861   1.915       .  S
O1524      C1526   1.258       .  A
O1524     Al1525   1.902       .  S
Al1525     O1859   1.915   1_554  S
Al1525     O1533   1.882       .  S
Al1525     O1535   1.909       .  S
Al1525     O1534   1.778       .  S
C1526      O1539   1.246       .  A
C1526      C1635   1.418       .  S
O1527      C1873   1.259   1_554  A
O1527     Al1529   1.872       .  S
O1528      C1877   1.262       .  A
O1528     Al1538   1.942       .  S
Al1529     O1542   1.894       .  S
Al1529     O1539   1.872       .  S
Al1529     O1534   1.788       .  S
O1530      C1537   1.274       .  A
O1530     Al1538   1.955       .  S
O1531      C1876   1.264       .  A
O1531     Al1538   1.943       .  S
O1532     Al1538   1.929       .  S
O1533      C1540   1.253       .  A
O1534     Al1874   1.781   1_554  S
O1535      C1536   1.265       .  A
C1536      C1620   1.410       .  S
C1537      O1863   1.259       .  A
C1537      C1659   1.429       .  S
Al1538     O1870   1.781       .  S
C1540      O1867   1.264   1_554  A
C1540      C1673   1.452       .  S
C1541      O1864   1.262       .  A
C1541      O1542   1.252       .  A
C1541      C1612   1.442       .  S
O1543      C1558   1.263       .  A
O1543     Al1551   1.877       .  S
C1544      O1554   1.265       .  A
C1544      O1545   1.263       .  A
C1544      C1632   1.453       .  S
O1545     Al1547   1.913       .  S
O1546      C1548   1.258       .  A
O1546     Al1547   1.902       .  S
Al1547     O1555   1.884       .  S
Al1547     O1557   1.907       .  S
Al1547     O1556   1.778       .  S
C1548      O1561   1.246       .  A
C1548      C1630   1.420       .  S
O1549      C1559   1.259       .  A
O1549     Al1551   1.872       .  S
O1550      C1563   1.262       .  A
O1550     Al1560   1.941       .  S
Al1551     O1564   1.895       .  S
Al1551     O1561   1.875       .  S
Al1551     O1556   1.790       .  S
O1552      C1559   1.274       .  A
O1552     Al1560   1.955       .  S
O1553      C1562   1.264       .  A
O1553     Al1560   1.941       .  S
O1554     Al1560   1.927       .  S
O1555      C1562   1.253       .  A
O1556     Al1560   1.781       .  S
O1557      C1558   1.265       .  A
C1558      C1982   1.407   1_554  S
C1559      C1614   1.429       .  S
C1562      C1610   1.451       .  S
C1563      O1564   1.252       .  A
C1563      C1611   1.442       .  S
O1565      C1580   1.263       .  A
O1565     Al1573   1.877       .  S
C1566      O1576   1.265       .  A
C1566      O1567   1.263       .  A
C1566      C1666   1.453       .  S
O1567     Al1569   1.913       .  S
O1568      C1570   1.258       .  A
O1568     Al1569   1.902       .  S
Al1569     O1577   1.884       .  S
Al1569     O1579   1.907       .  S
Al1569     O1578   1.778       .  S
C1570      O1583   1.247       .  A
C1570      C1615   1.420       .  S
O1571      C1581   1.259       .  A
O1571     Al1573   1.872       .  S
O1572      C1585   1.262       .  A
O1572     Al1582   1.941       .  S
Al1573     O1586   1.895       .  S
Al1573     O1583   1.875       .  S
Al1573     O1578   1.790       .  S
O1574      C1581   1.274       .  A
O1574     Al1582   1.955       .  S
O1575      C1584   1.264       .  A
O1575     Al1582   1.941       .  S
O1576     Al1582   1.927       .  S
O1577      C1584   1.253       .  A
O1578     Al1582   1.781       .  S
O1579      C1580   1.264       .  A
C1580      C1680   1.407       .  S
C1581      C1625   1.429       .  S
C1584      C1622   1.452       .  S
C1585      O1586   1.252       .  A
C1585      C1648   1.442       .  S
O1587      C1602   1.263       .  A
O1587     Al1595   1.880       .  S
C1588      O1598   1.265       .  A
C1588      O1589   1.263       .  A
C1588      C1609   1.452       .  S
O1589     Al1927   1.914   1_554  S
O1590      C1592   1.259       .  A
O1590     Al1591   1.903       .  S
Al1591     O1925   1.914       .  S
Al1591     O1599   1.885       .  S
Al1591     O1601   1.907       .  S
Al1591     O1600   1.778       .  S
C1592      O1605   1.247       .  A
C1592      C1642   1.420       .  S
O1593      C1939   1.258       .  A
O1593     Al1595   1.872       .  S
O1594      C1943   1.262       .  A
O1594     Al1604   1.940   1_556  S
Al1595     O1608   1.895       .  S
Al1595     O1605   1.874       .  S
Al1595     O1600   1.788       .  S
O1596      C1603   1.273       .  A
O1596     Al1604   1.954       .  S
O1597      C1942   1.265   1_554  A
O1597     Al1604   1.944       .  S
O1598     Al1604   1.926       .  S
O1599      C1606   1.254       .  A
O1600     Al1940   1.782       .  S
O1601      C1602   1.264       .  A
C1602      C1654   1.410       .  S
C1603      O1929   1.258   1_554  A
C1603      C1672   1.430       .  S
Al1604     O1936   1.782   1_554  S
C1606      O1933   1.265       .  A
C1606      C1664   1.453       .  S
C1607      O1930   1.262       .  A
C1607      O1608   1.253       .  A
C1607      C1623   1.442       .  S
C1611      C1612   1.211       .  T
C1613      C1614   1.203       .  T
C1615      C2288   1.199       .  T
C1616      C2287   1.199       .  T
C1617      C1618   1.211       .  T
C1619      C1620   1.191       .  T
C1623      C1624   1.211       .  T
C1625      C1626   1.202       .  T
C1627      C1628   1.217       .  T
C1629      C2638   1.199       .  T
C1630      C2637   1.199   1_554  T
C1631      C2304   1.216   1_545  T
C1632      C2303   1.216       .  T
C1633      C1634   1.192       .  T
C1635      C1636   1.198       .  T
C1637      C1638   1.217       .  T
C1639      C1640   1.203       .  T
C1643      C2102   1.452   1_545  S
C1643      C1644   1.216       .  T
C1645      C1646   1.190       .  T
C1646      C1894   1.407       .  S
C1647      C1648   1.211       .  T
C1649      C1650   1.203       .  T
C1653      C1654   1.191       .  T
C1655      C1656   1.216       .  T
C1657      C1658   1.211       .  T
C1659      C1660   1.203       .  T
C1661      C1662   1.198       .  T
C1663      C1664   1.217       .  T
C1665      C2058   1.452   1_545  S
C1665      C1666   1.216       .  T
C1667      C1668   1.191       .  T
C1669      C1670   1.211       .  T
C1671      C1672   1.203       .  T
C1677      C2350   1.216   1_545  T
C1678      C2349   1.216       .  T
C1679      C1680   1.190       .  T
O1681      C1696   1.263       .  A
O1681     Al1689   1.878       .  S
C1682      O1692   1.265       .  A
C1682      O1683   1.262       .  A
C1682      C2010   1.453       .  S
O1683     Al1685   1.913       .  S
O1684      C1686   1.258       .  A
O1684     Al1685   1.902       .  S
Al1685     O1693   1.884       .  S
Al1685     O1695   1.907       .  S
Al1685     O1694   1.778       .  S
C1686      O1699   1.246       .  A
C1686      C2012   1.420       .  S
O1687      C1697   1.259       .  A
O1687     Al1689   1.872       .  S
O1688      C1701   1.262       .  A
O1688     Al1698   1.941       .  S
Al1689     O1702   1.894       .  S
Al1689     O1699   1.875       .  S
Al1689     O1694   1.790       .  S
O1690      C1697   1.274       .  A
O1690     Al1698   1.955       .  S
O1691      C1700   1.264       .  A
O1691     Al1698   1.941       .  S
O1692     Al1698   1.927       .  S
O1693      C1700   1.253       .  A
O1694     Al1698   1.781       .  S
O1695      C1696   1.264       .  A
C1696      C2015   1.407       .  S
C1697      C2007   1.429       .  S
C1700      C2013   1.452       .  S
C1701      O1702   1.252       .  A
C1701      C2005   1.442       .  S
O1703      C1718   1.262       .  A
O1703     Al1711   1.878       .  S
C1704      O1714   1.266       .  A
C1704      O1705   1.263       .  A
C1704      C1999   1.453       .  S
O1705     Al1707   1.915       .  S
O1706      C1708   1.258       .  A
O1706     Al1707   1.901       .  S
Al1707     O1715   1.883       .  S
Al1707     O1717   1.909       .  S
Al1707     O1716   1.778       .  S
C1708      O1721   1.246       .  A
C1708      C1997   1.418       .  S
O1709      C1719   1.259       .  A
O1709     Al1711   1.872       .  S
O1710      C1723   1.262       .  A
O1710     Al1720   1.942       .  S
Al1711     O1724   1.894       .  S
Al1711     O1721   1.872       .  S
Al1711     O1716   1.788       .  S
O1712      C1719   1.274       .  A
O1712     Al1720   1.955       .  S
O1713      C1722   1.264       .  A
O1713     Al1720   1.943       .  S
O1714     Al1720   1.929       .  S
O1715      C1722   1.253       .  A
O1716     Al1720   1.781       .  S
O1717      C1718   1.265       .  A
C1718      C2004   1.410       .  S
C1719      C1996   1.429       .  S
C1722      C2673   1.452       .  S
C1723      O1724   1.252       .  A
C1723      C1994   1.443       .  S
O1725      C1740   1.262       .  A
O1725     Al1733   1.879       .  S
C1726      O1736   1.266       .  A
C1726      O1727   1.263       .  A
C1726      C1992   1.453       .  S
O1727     Al1729   1.915       .  S
O1728      C1730   1.258       .  A
O1728     Al1729   1.901       .  S
Al1729     O1737   1.882       .  S
Al1729     O1739   1.910       .  S
Al1729     O1738   1.779       .  S
C1730      O1743   1.246       .  A
C1730      C1998   1.418       .  S
O1731      C1741   1.259       .  A
O1731     Al1733   1.872       .  S
O1732      C1745   1.262       .  A
O1732     Al1742   1.941       .  S
Al1733     O1746   1.894       .  S
Al1733     O1743   1.872       .  S
Al1733     O1738   1.789       .  S
O1734      C1741   1.274       .  A
O1734     Al1742   1.955       .  S
O1735      C1744   1.264       .  A
O1735     Al1742   1.943       .  S
O1736     Al1742   1.928       .  S
O1737      C1744   1.253       .  A
O1738     Al1742   1.781       .  S
O1739      C1740   1.265       .  A
C1740      C1989   1.410       .  S
C1741      C1985   1.430       .  S
C1744      C1987   1.452       .  S
C1745      O1746   1.252       .  A
C1745      C1983   1.442       .  S
O1747      C1762   1.263       .  A
O1747     Al1755   1.877       .  S
C1748      O1758   1.265       .  A
C1748      O1749   1.263       .  A
C1748      C1988   1.453       .  S
O1749     Al1751   1.913       .  S
O1750      C1752   1.258       .  A
O1750     Al1751   1.902       .  S
Al1751     O1759   1.884       .  S
Al1751     O1761   1.907       .  S
Al1751     O1760   1.778       .  S
C1752      O1765   1.247       .  A
C1752      C1977   1.420       .  S
O1753      C1763   1.259       .  A
O1753     Al1755   1.872       .  S
O1754      C1767   1.262       .  A
O1754     Al1764   1.942       .  S
Al1755     O1768   1.895       .  S
Al1755     O1765   1.876       .  S
Al1755     O1760   1.790       .  S
O1756      C1763   1.274       .  A
O1756     Al1764   1.955       .  S
O1757      C1766   1.264       .  A
O1757     Al1764   1.941       .  S
O1758     Al1764   1.927       .  S
O1759      C1766   1.253       .  A
O1760     Al1764   1.781       .  S
O1761      C1762   1.265       .  A
C1762      C1981   1.407       .  S
C1763      C1976   1.429       .  S
C1766      C2651   1.452       .  S
C1767      O1768   1.252       .  A
C1767      C1993   1.443       .  S
O1769      C1784   1.262       .  A
O1769     Al1777   1.879       .  S
C1770      O1780   1.266       .  A
C1770      O1771   1.263       .  A
C1770      C1973   1.453       .  S
O1771     Al1773   1.915       .  S
O1772      C1774   1.258       .  A
O1772     Al1773   1.901       .  S
Al1773     O1781   1.882       .  S
Al1773     O1783   1.910       .  S
Al1773     O1782   1.778       .  S
C1774      O1787   1.246       .  A
C1774      C1972   1.418       .  S
O1775      C1785   1.259       .  A
O1775     Al1777   1.872       .  S
O1776      C1789   1.262       .  A
O1776     Al1786   1.941       .  S
Al1777     O1790   1.894       .  S
Al1777     O1787   1.872       .  S
Al1777     O1782   1.788       .  S
O1778      C1785   1.274       .  A
O1778     Al1786   1.955       .  S
O1779      C1788   1.264       .  A
O1779     Al1786   1.943       .  S
O1780     Al1786   1.929       .  S
O1781      C1788   1.253       .  A
O1782     Al1786   1.781       .  S
O1783      C1784   1.265       .  A
C1784      C1969   1.410       .  S
C1785      C1986   1.430       .  S
C1788      C1967   1.452       .  S
C1789      O1790   1.252       .  A
C1789      C2006   1.442       .  S
O1791     Al1799   1.880       .  S
C1792      O1802   1.265       .  A
C1792      O1793   1.263       .  A
C1792      C1980   1.452       .  S
O1793     Al1795   1.914       .  S
O1794      C1796   1.259       .  A
O1794     Al1795   1.903       .  S
Al1795     O1803   1.885       .  S
Al1795     O1805   1.907       .  S
Al1795     O1804   1.778       .  S
C1796      O1809   1.247       .  A
C1796      C1965   1.419       .  S
O1797      C1807   1.258       .  A
O1797     Al1799   1.871       .  S
O1798      C1811   1.262       .  A
O1798     Al1808   1.940       .  S
Al1799     O1812   1.894       .  S
Al1799     O1809   1.873       .  S
Al1799     O1804   1.788       .  S
O1800      C1807   1.273       .  A
O1800     Al1808   1.954       .  S
O1801      C1810   1.265       .  A
O1801     Al1808   1.944       .  S
O1802     Al1808   1.927       .  S
O1803      C1810   1.254       .  A
O1804     Al1808   1.782       .  S
C1806      C1970   1.411       .  S
C1807      C1962   1.429       .  S
C1810      C1963   1.452       .  S
C1811      O1812   1.253       .  A
C1811      C1960   1.442       .  S
O1813      C1828   1.263       .  A
O1813     Al1821   1.880       .  S
C1814      O1824   1.265       .  A
C1814      O1815   1.262       .  A
C1814      C1957   1.452       .  S
O1815     Al1817   1.914       .  S
O1816      C1818   1.259       .  A
O1816     Al1817   1.903       .  S
Al1817     O1825   1.885       .  S
Al1817     O1827   1.907       .  S
Al1817     O1826   1.778       .  S
C1818      O1831   1.247       .  A
C1818      C2011   1.419       .  S
O1819      C1829   1.258       .  A
O1819     Al1821   1.871       .  S
O1820      C1833   1.262       .  A
O1820     Al1830   1.940       .  S
Al1821     O1834   1.894       .  S
Al1821     O1831   1.874       .  S
Al1821     O1826   1.788       .  S
O1822      C1829   1.274       .  A
O1822     Al1830   1.955       .  S
O1823      C1832   1.265       .  A
O1823     Al1830   1.945       .  S
O1824     Al1830   1.927       .  S
O1825      C1832   1.254       .  A
O1826     Al1830   1.782       .  S
O1827      C1828   1.264       .  A
C1828      C1955   1.410       .  S
C1829      C1975   1.429       .  S
C1832      C1974   1.453       .  S
C1833      O1834   1.253       .  A
C1833      C1954   1.442       .  S
O1835      C1850   1.263       .  A
O1835     Al1843   1.880       .  S
C1836      O1846   1.265       .  A
C1836      O1837   1.263       .  A
C1836      C2014   1.452       .  S
O1837     Al1839   1.915       .  S
O1838      C1840   1.259       .  A
O1838     Al1839   1.903       .  S
Al1839     O1847   1.885       .  S
Al1839     O1849   1.907       .  S
Al1839     O1848   1.778       .  S
C1840      O1853   1.247       .  A
C1840      C1952   1.420       .  S
O1841      C1851   1.258       .  A
O1841     Al1843   1.872       .  S
O1842      C1855   1.262       .  A
O1842     Al1852   1.939       .  S
Al1843     O1856   1.894       .  S
Al1843     O1853   1.874       .  S
Al1843     O1848   1.788       .  S
O1844      C1851   1.273       .  A
O1844     Al1852   1.954       .  S
O1845      C1854   1.265       .  A
O1845     Al1852   1.944       .  S
O1846     Al1852   1.926       .  S
O1847      C1854   1.254       .  A
O1848     Al1852   1.782       .  S
O1849      C1850   1.264       .  A
C1850      C2003   1.410       .  S
C1851      C1949   1.429       .  S
C1854      C1991   1.452       .  S
C1855      O1856   1.253       .  A
C1855      C1953   1.442       .  S
O1857      C1872   1.262       .  A
O1857     Al1865   1.879       .  S
C1858      O1868   1.266       .  A
C1858      O1859   1.263       .  A
C1858      C1964   1.453       .  S
O1860      C1862   1.258       .  A
O1860     Al1861   1.902       .  S
Al1861     O1869   1.882       .  S
Al1861     O1871   1.909       .  S
Al1861     O1870   1.778       .  S
C1862      O1875   1.246       .  A
C1862      C1971   1.418       .  S
O1863     Al1865   1.872       .  S
O1864     Al1874   1.942   1_554  S
Al1865     O1878   1.894       .  S
Al1865     O1875   1.872       .  S
Al1865     O1870   1.788       .  S
O1866      C1873   1.274       .  A
O1866     Al1874   1.955       .  S
O1867     Al1874   1.943       .  S
O1868     Al1874   1.929       .  S
O1869      C1876   1.253       .  A
O1871      C1872   1.265       .  A
C1872      C1956   1.410       .  S
C1873      C1995   1.429       .  S
C1876      C2009   1.452       .  S
C1877      O1878   1.252       .  A
C1877      C1948   1.442       .  S
O1879      C1894   1.263       .  A
O1879     Al1887   1.877       .  S
C1880      O1890   1.265       .  A
C1880      O1881   1.263       .  A
C1880      C1968   1.453       .  S
O1881     Al1883   1.913       .  S
O1882      C1884   1.258       .  A
O1882     Al1883   1.902       .  S
Al1883     O1891   1.884       .  S
Al1883     O1893   1.907       .  S
Al1883     O1892   1.778       .  S
C1884      O1897   1.246       .  A
C1884      C1966   1.420       .  S
O1885      C1895   1.259       .  A
O1885     Al1887   1.872       .  S
O1886      C1899   1.262       .  A
O1886     Al1896   1.941       .  S
Al1887     O1900   1.895       .  S
Al1887     O1897   1.875       .  S
Al1887     O1892   1.790       .  S
O1888      C1895   1.274       .  A
O1888     Al1896   1.955       .  S
O1889      C1898   1.264       .  A
O1889     Al1896   1.941       .  S
O1890     Al1896   1.927       .  S
O1891      C1898   1.253       .  A
O1892     Al1896   1.781       .  S
O1893      C1894   1.265       .  A
C1895      C1950   1.429       .  S
C1898      C1946   1.451       .  S
C1899      O1900   1.252       .  A
C1899      C1947   1.442       .  S
O1901      C1916   1.263       .  A
O1901     Al1909   1.877       .  S
C1902      O1912   1.265       .  A
C1902      O1903   1.263       .  A
C1902      C2002   1.453       .  S
O1903     Al1905   1.913       .  S
O1904      C1906   1.258       .  A
O1904     Al1905   1.902       .  S
Al1905     O1913   1.884       .  S
Al1905     O1915   1.907       .  S
Al1905     O1914   1.778       .  S
C1906      O1919   1.247       .  A
C1906      C1951   1.420       .  S
O1907      C1917   1.259       .  A
O1907     Al1909   1.872       .  S
O1908      C1921   1.262       .  A
O1908     Al1918   1.941       .  S
Al1909     O1922   1.895       .  S
Al1909     O1919   1.875       .  S
Al1909     O1914   1.790       .  S
O1910      C1917   1.274       .  A
O1910     Al1918   1.955       .  S
O1911      C1920   1.264       .  A
O1911     Al1918   1.941       .  S
O1912     Al1918   1.927       .  S
O1913      C1920   1.253       .  A
O1914     Al1918   1.781       .  S
O1915      C1916   1.264       .  A
C1916      C2016   1.407       .  S
C1917      C1961   1.429       .  S
C1920      C1958   1.452       .  S
C1921      O1922   1.252       .  A
C1921      C1984   1.442       .  S
O1923      C1938   1.263       .  A
O1923     Al1931   1.880       .  S
C1924      O1934   1.265       .  A
C1924      O1925   1.263       .  A
C1924      C1945   1.452       .  S
O1926      C1928   1.259       .  A
O1926     Al1927   1.903       .  S
Al1927     O1935   1.885       .  S
Al1927     O1937   1.907       .  S
Al1927     O1936   1.778       .  S
C1928      O1941   1.247       .  A
C1928      C1978   1.420       .  S
O1929     Al1931   1.872       .  S
O1930     Al1940   1.940       .  S
Al1931     O1944   1.895       .  S
Al1931     O1941   1.874       .  S
Al1931     O1936   1.788       .  S
O1932      C1939   1.273       .  A
O1932     Al1940   1.954       .  S
O1933     Al1940   1.944       .  S
O1934     Al1940   1.926       .  S
O1935      C1942   1.254       .  A
O1937      C1938   1.264       .  A
C1938      C1990   1.410       .  S
C1939      C2008   1.430       .  S
C1942      C2000   1.453       .  S
C1943      O1944   1.253       .  A
C1943      C1959   1.442       .  S
C1947      C1948   1.211       .  T
C1949      C1950   1.203       .  T
C1951      C2624   1.199       .  T
C1952      C2623   1.199       .  T
C1953      C1954   1.211       .  T
C1955      C1956   1.191       .  T
C1959      C1960   1.211       .  T
C1961      C1962   1.202       .  T
C1963      C1964   1.217       .  T
C1965      C2302   1.199   1_556  T
C1966      C2301   1.199       .  T
C1967      C2640   1.216   1_545  T
C1968      C2639   1.216       .  T
C1969      C1970   1.192       .  T
C1971      C1972   1.198       .  T
C1973      C1974   1.217       .  T
C1975      C1976   1.203       .  T
C1979      C2438   1.452   1_545  S
C1979      C1980   1.216       .  T
C1981      C1982   1.190       .  T
C1983      C1984   1.211       .  T
C1985      C1986   1.203       .  T
C1989      C1990   1.191       .  T
C1991      C1992   1.216       .  T
C1993      C1994   1.211       .  T
C1995      C1996   1.203       .  T
C1997      C1998   1.198       .  T
C1999      C2000   1.217       .  T
C2001      C2394   1.452   1_545  S
C2001      C2002   1.216       .  T
C2003      C2004   1.191       .  T
C2005      C2006   1.211       .  T
C2007      C2008   1.203       .  T
C2013      C2686   1.216   1_545  T
C2014      C2685   1.216       .  T
C2015      C2016   1.190       .  T
O2017      C2032   1.263       .  A
O2017     Al2025   1.878       .  S
C2018      O2028   1.265       .  A
C2018      O2019   1.262       .  A
C2018      C2346   1.453       .  S
O2019     Al2021   1.913       .  S
O2020      C2022   1.258       .  A
O2020     Al2021   1.902       .  S
Al2021     O2029   1.884       .  S
Al2021     O2031   1.907       .  S
Al2021     O2030   1.778       .  S
C2022      O2035   1.246       .  A
C2022      C2348   1.420       .  S
O2023      C2033   1.259       .  A
O2023     Al2025   1.872       .  S
O2024      C2037   1.262       .  A
O2024     Al2034   1.941       .  S
Al2025     O2038   1.894       .  S
Al2025     O2035   1.875       .  S
Al2025     O2030   1.790       .  S
O2026      C2033   1.274       .  A
O2026     Al2034   1.955       .  S
O2027      C2036   1.264       .  A
O2027     Al2034   1.941       .  S
O2028     Al2034   1.927       .  S
O2029      C2036   1.253       .  A
O2030     Al2034   1.781       .  S
O2031      C2032   1.264       .  A
C2032      C2351   1.407       .  S
C2033      C2343   1.429       .  S
C2036      C2349   1.452       .  S
C2037      O2038   1.252       .  A
C2037      C2341   1.442       .  S
O2039      C2054   1.262       .  A
O2039     Al2047   1.878       .  S
C2040      O2050   1.266       .  A
C2040      O2041   1.263       .  A
C2040      C2335   1.453       .  S
O2041     Al2043   1.915       .  S
O2042      C2044   1.258       .  A
O2042     Al2043   1.901       .  S
Al2043     O2051   1.883       .  S
Al2043     O2053   1.909       .  S
Al2043     O2052   1.778       .  S
C2044      O2057   1.246       .  A
C2044      C2333   1.418       .  S
O2045      C2055   1.259       .  A
O2045     Al2047   1.872       .  S
O2046      C2059   1.262       .  A
O2046     Al2056   1.942       .  S
Al2047     O2060   1.894       .  S
Al2047     O2057   1.872       .  S
Al2047     O2052   1.788       .  S
O2048      C2055   1.274       .  A
O2048     Al2056   1.955       .  S
O2049      C2058   1.264       .  A
O2049     Al2056   1.943       .  S
O2050     Al2056   1.929       .  S
O2051      C2058   1.253       .  A
O2052     Al2056   1.781       .  S
O2053      C2054   1.265       .  A
C2054      C2340   1.410       .  S
C2055      C2332   1.429       .  S
C2059      O2060   1.252       .  A
C2059      C2330   1.443       .  S
O2061      C2076   1.262       .  A
O2061     Al2069   1.879       .  S
C2062      O2072   1.266       .  A
C2062      O2063   1.263       .  A
C2062      C2328   1.453       .  S
O2063     Al2065   1.915       .  S
O2064      C2066   1.258       .  A
O2064     Al2065   1.901       .  S
Al2065     O2073   1.882       .  S
Al2065     O2075   1.910       .  S
Al2065     O2074   1.779       .  S
C2066      O2079   1.246       .  A
C2066      C2334   1.418       .  S
O2067      C2077   1.259       .  A
O2067     Al2069   1.872       .  S
O2068      C2081   1.262       .  A
O2068     Al2078   1.941       .  S
Al2069     O2082   1.894       .  S
Al2069     O2079   1.872       .  S
Al2069     O2074   1.789       .  S
O2070      C2077   1.274       .  A
O2070     Al2078   1.955       .  S
O2071      C2080   1.264       .  A
O2071     Al2078   1.943       .  S
O2072     Al2078   1.928       .  S
O2073      C2080   1.253       .  A
O2074     Al2078   1.781       .  S
O2075      C2076   1.265       .  A
C2076      C2325   1.410       .  S
C2077      C2321   1.430       .  S
C2080      C2323   1.452       .  S
C2081      O2082   1.252       .  A
C2081      C2319   1.442       .  S
O2083      C2098   1.263       .  A
O2083     Al2091   1.877       .  S
C2084      O2094   1.265       .  A
C2084      O2085   1.263       .  A
C2084      C2324   1.453       .  S
O2085     Al2087   1.913       .  S
O2086      C2088   1.258       .  A
O2086     Al2087   1.902       .  S
Al2087     O2095   1.884       .  S
Al2087     O2097   1.907       .  S
Al2087     O2096   1.778       .  S
C2088      O2101   1.247       .  A
C2088      C2313   1.420       .  S
O2089      C2099   1.259       .  A
O2089     Al2091   1.872       .  S
O2090      C2103   1.262       .  A
O2090     Al2100   1.942       .  S
Al2091     O2104   1.895       .  S
Al2091     O2101   1.876       .  S
Al2091     O2096   1.790       .  S
O2092      C2099   1.274       .  A
O2092     Al2100   1.955       .  S
O2093      C2102   1.264       .  A
O2093     Al2100   1.941       .  S
O2094     Al2100   1.927       .  S
O2095      C2102   1.253       .  A
O2096     Al2100   1.781       .  S
O2097      C2098   1.265       .  A
C2098      C2317   1.407       .  S
C2099      C2312   1.429       .  S
C2103      O2104   1.252       .  A
C2103      C2329   1.443       .  S
O2105      C2120   1.262       .  A
O2105     Al2113   1.879       .  S
C2106      O2116   1.266       .  A
C2106      O2107   1.263       .  A
C2106      C2309   1.453       .  S
O2107     Al2109   1.915       .  S
O2108      C2110   1.258       .  A
O2108     Al2109   1.901       .  S
Al2109     O2117   1.882       .  S
Al2109     O2119   1.910       .  S
Al2109     O2118   1.778       .  S
C2110      O2123   1.246       .  A
C2110      C2308   1.418       .  S
O2111      C2121   1.259       .  A
O2111     Al2113   1.872       .  S
O2112      C2125   1.262       .  A
O2112     Al2122   1.941       .  S
Al2113     O2126   1.894       .  S
Al2113     O2123   1.872       .  S
Al2113     O2118   1.788       .  S
O2114      C2121   1.274       .  A
O2114     Al2122   1.955       .  S
O2115      C2124   1.264       .  A
O2115     Al2122   1.943       .  S
O2116     Al2122   1.929       .  S
O2117      C2124   1.253       .  A
O2118     Al2122   1.781       .  S
O2119      C2120   1.265       .  A
C2120      C2305   1.410       .  S
C2121      C2322   1.430       .  S
C2124      C2303   1.452       .  S
C2125      O2126   1.252       .  A
C2125      C2342   1.442       .  S
O2127      C2478   1.263       .  A
O2127     Al2135   1.880       .  S
C2128      O2138   1.265       .  A
C2128      O2129   1.263       .  A
C2128      C2316   1.452       .  S
O2129     Al2131   1.914       .  S
O2130      C2132   1.259       .  A
O2130     Al2131   1.903       .  S
Al2131     O2139   1.885       .  S
Al2131     O2141   1.907       .  S
Al2131     O2140   1.778       .  S
C2132      O2145   1.247       .  A
C2132      C2301   1.419       .  S
O2133      C2143   1.258       .  A
O2133     Al2135   1.871       .  S
O2134      C2147   1.262       .  A
O2134     Al2144   1.940       .  S
Al2135     O2148   1.894       .  S
Al2135     O2145   1.873       .  S
Al2135     O2140   1.788       .  S
O2136      C2143   1.273       .  A
O2136     Al2144   1.954       .  S
O2137      C2146   1.265       .  A
O2137     Al2144   1.944       .  S
O2138     Al2144   1.927       .  S
O2139      C2146   1.254       .  A
O2140     Al2144   1.782       .  S
O2141      C2478   1.264       .  A
C2142      O2463   1.263   1_554  A
C2142      O2477   1.264   1_554  A
C2142      C2306   1.411       .  S
C2143      C2298   1.429       .  S
C2146      C2299   1.452       .  S
C2147      O2148   1.253       .  A
C2147      C2296   1.442       .  S
O2149      C2164   1.263       .  A
O2149     Al2157   1.880       .  S
C2150      O2160   1.265       .  A
C2150      O2151   1.262       .  A
C2150      C2293   1.452       .  S
O2151     Al2153   1.914       .  S
O2152      C2154   1.259       .  A
O2152     Al2153   1.903       .  S
Al2153     O2161   1.885       .  S
Al2153     O2163   1.907       .  S
Al2153     O2162   1.778       .  S
C2154      O2167   1.247       .  A
C2154      C2347   1.419       .  S
O2155      C2165   1.258       .  A
O2155     Al2157   1.871       .  S
O2156      C2169   1.262       .  A
O2156     Al2166   1.940       .  S
Al2157     O2170   1.894       .  S
Al2157     O2167   1.874       .  S
Al2157     O2162   1.788       .  S
O2158      C2165   1.274       .  A
O2158     Al2166   1.955       .  S
O2159      C2168   1.265       .  A
O2159     Al2166   1.945       .  S
O2160     Al2166   1.927       .  S
O2161      C2168   1.254       .  A
O2162     Al2166   1.782       .  S
O2163      C2164   1.264       .  A
C2164      C2291   1.410       .  S
C2165      C2311   1.429       .  S
C2168      C2310   1.453       .  S
C2169      O2170   1.253       .  A
C2169      C2290   1.442       .  S
O2171      C2186   1.263       .  A
O2171     Al2179   1.880       .  S
C2172      O2182   1.265       .  A
C2172      O2173   1.263       .  A
C2172      C2350   1.452       .  S
O2173     Al2175   1.915       .  S
O2174      C2176   1.259       .  A
O2174     Al2175   1.903       .  S
Al2175     O2183   1.885       .  S
Al2175     O2185   1.907       .  S
Al2175     O2184   1.778       .  S
C2176      O2189   1.247       .  A
C2176      C2288   1.420   1_565  S
O2177      C2187   1.258       .  A
O2177     Al2179   1.872       .  S
O2178      C2191   1.262       .  A
O2178     Al2188   1.939       .  S
Al2179     O2192   1.894       .  S
Al2179     O2189   1.874       .  S
Al2179     O2184   1.788       .  S
O2180      C2187   1.273       .  A
O2180     Al2188   1.954       .  S
O2181      C2190   1.265       .  A
O2181     Al2188   1.944       .  S
O2182     Al2188   1.926       .  S
O2183      C2190   1.254       .  A
O2184     Al2188   1.782       .  S
O2185      C2186   1.264       .  A
C2186      C2339   1.410       .  S
C2187      C2285   1.429       .  S
C2190      C2327   1.452       .  S
C2191      O2192   1.253       .  A
C2191      C2289   1.442       .  S
O2193      C2208   1.262       .  A
O2193     Al2201   1.879       .  S
C2194      O2204   1.266       .  A
C2194      O2195   1.263       .  A
C2194      C2300   1.453       .  S
O2195     Al2533   1.915       .  S
O2196      C2198   1.258       .  A
O2196     Al2197   1.902       .  S
Al2197     O2531   1.915   1_554  S
Al2197     O2205   1.882       .  S
Al2197     O2207   1.909       .  S
Al2197     O2206   1.778       .  S
C2198      O2211   1.246       .  A
C2198      C2307   1.418       .  S
O2199      C2545   1.259   1_554  A
O2199     Al2201   1.872       .  S
O2200      C2549   1.262       .  A
O2200     Al2210   1.942       .  S
Al2201     O2214   1.894       .  S
Al2201     O2211   1.872       .  S
Al2201     O2206   1.788       .  S
O2202      C2209   1.274       .  A
O2202     Al2210   1.955       .  S
O2203      C2548   1.264       .  A
O2203     Al2210   1.943       .  S
O2204     Al2210   1.929       .  S
O2205      C2212   1.253       .  A
O2206     Al2546   1.781   1_554  S
O2207      C2208   1.265       .  A
C2208      C2292   1.410       .  S
C2209      O2535   1.259       .  A
C2209      C2331   1.429       .  S
Al2210     O2542   1.781       .  S
C2212      O2539   1.264   1_554  A
C2212      C2345   1.452       .  S
C2213      O2536   1.262       .  A
C2213      O2214   1.252       .  A
C2213      C2284   1.442       .  S
O2215      C2230   1.263       .  A
O2215     Al2223   1.877       .  S
C2216      O2226   1.265       .  A
C2216      O2217   1.263       .  A
C2216      C2304   1.453       .  S
O2217     Al2219   1.913       .  S
O2218      C2220   1.258       .  A
O2218     Al2219   1.902       .  S
Al2219     O2227   1.884       .  S
Al2219     O2229   1.907       .  S
Al2219     O2228   1.778       .  S
C2220      O2233   1.246       .  A
C2220      C2302   1.420   1_565  S
O2221      C2231   1.259       .  A
O2221     Al2223   1.872       .  S
O2222      C2235   1.262       .  A
O2222     Al2232   1.941       .  S
Al2223     O2236   1.895       .  S
Al2223     O2233   1.875       .  S
Al2223     O2228   1.790       .  S
O2224      C2231   1.274       .  A
O2224     Al2232   1.955       .  S
O2225      C2234   1.264       .  A
O2225     Al2232   1.941       .  S
O2226     Al2232   1.927       .  S
O2227      C2234   1.253       .  A
O2228     Al2232   1.781       .  S
O2229      C2230   1.265       .  A
C2230      C2654   1.407   1_554  S
C2231      C2286   1.429       .  S
C2234      C2282   1.451       .  S
C2235      O2236   1.252       .  A
C2235      C2283   1.442       .  S
O2237      C2252   1.263       .  A
O2237     Al2245   1.877       .  S
C2238      O2248   1.265       .  A
C2238      O2239   1.263       .  A
C2238      C2338   1.453       .  S
O2239     Al2241   1.913       .  S
O2240      C2242   1.258       .  A
O2240     Al2241   1.902       .  S
Al2241     O2249   1.884       .  S
Al2241     O2251   1.907       .  S
Al2241     O2250   1.778       .  S
C2242      O2255   1.247       .  A
C2242      C2287   1.420       .  S
O2243      C2253   1.259       .  A
O2243     Al2245   1.872       .  S
O2244      C2257   1.262       .  A
O2244     Al2254   1.941       .  S
Al2245     O2258   1.895       .  S
Al2245     O2255   1.875       .  S
Al2245     O2250   1.790       .  S
O2246      C2253   1.274       .  A
O2246     Al2254   1.955       .  S
O2247      C2256   1.264       .  A
O2247     Al2254   1.941       .  S
O2248     Al2254   1.927       .  S
O2249      C2256   1.253       .  A
O2250     Al2254   1.781       .  S
O2251      C2252   1.264       .  A
C2252      C2352   1.407       .  S
C2253      C2297   1.429       .  S
C2256      C2294   1.452       .  S
C2257      O2258   1.252       .  A
C2257      C2320   1.442       .  S
O2259      C2274   1.263       .  A
O2259     Al2267   1.880       .  S
C2260      O2270   1.265       .  A
C2260      O2261   1.263       .  A
C2260      C2281   1.452       .  S
O2261     Al2599   1.914   1_554  S
O2262      C2264   1.259       .  A
O2262     Al2263   1.903       .  S
Al2263     O2597   1.914       .  S
Al2263     O2271   1.885       .  S
Al2263     O2273   1.907       .  S
Al2263     O2272   1.778       .  S
C2264      O2277   1.247       .  A
C2264      C2314   1.420       .  S
O2265      C2611   1.258       .  A
O2265     Al2267   1.872       .  S
O2266      C2615   1.262       .  A
O2266     Al2276   1.940   1_556  S
Al2267     O2280   1.895       .  S
Al2267     O2277   1.874       .  S
Al2267     O2272   1.788       .  S
O2268      C2275   1.273       .  A
O2268     Al2276   1.954       .  S
O2269      C2614   1.265   1_554  A
O2269     Al2276   1.944       .  S
O2270     Al2276   1.926       .  S
O2271      C2278   1.254       .  A
O2272     Al2612   1.782       .  S
O2273      C2274   1.264       .  A
C2274      C2326   1.410       .  S
C2275      O2601   1.258   1_554  A
C2275      C2344   1.430       .  S
Al2276     O2608   1.782   1_554  S
C2278      O2605   1.265       .  A
C2278      C2336   1.453       .  S
C2279      O2602   1.262       .  A
C2279      O2280   1.253       .  A
C2279      C2295   1.442       .  S
C2283      C2284   1.211       .  T
C2285      C2286   1.203       .  T
C2289      C2290   1.211       .  T
C2291      C2292   1.191       .  T
C2295      C2296   1.211       .  T
C2297      C2298   1.202       .  T
C2299      C2300   1.217       .  T
C2305      C2306   1.192       .  T
C2307      C2308   1.198       .  T
C2309      C2310   1.217       .  T
C2311      C2312   1.203       .  T
C2315      C2316   1.216       .  T
C2317      C2318   1.190       .  T
C2318      C2566   1.407       .  S
C2319      C2320   1.211       .  T
C2321      C2322   1.203       .  T
C2325      C2326   1.191       .  T
C2327      C2328   1.216       .  T
C2329      C2330   1.211       .  T
C2331      C2332   1.203       .  T
C2333      C2334   1.198       .  T
C2335      C2336   1.217       .  T
C2337      C2338   1.216       .  T
C2339      C2340   1.191       .  T
C2341      C2342   1.211       .  T
C2343      C2344   1.203       .  T
C2351      C2352   1.190       .  T
O2353      C2368   1.263       .  A
O2353     Al2361   1.878       .  S
C2354      O2364   1.265       .  A
C2354      O2355   1.262       .  A
C2354      C2682   1.453       .  S
O2355     Al2357   1.913       .  S
O2356      C2358   1.258       .  A
O2356     Al2357   1.902       .  S
Al2357     O2365   1.884       .  S
Al2357     O2367   1.907       .  S
Al2357     O2366   1.778       .  S
C2358      O2371   1.246       .  A
C2358      C2684   1.420       .  S
O2359      C2369   1.259       .  A
O2359     Al2361   1.872       .  S
O2360      C2373   1.262       .  A
O2360     Al2370   1.941       .  S
Al2361     O2374   1.894       .  S
Al2361     O2371   1.875       .  S
Al2361     O2366   1.790       .  S
O2362      C2369   1.274       .  A
O2362     Al2370   1.955       .  S
O2363      C2372   1.264       .  A
O2363     Al2370   1.941       .  S
O2364     Al2370   1.927       .  S
O2365      C2372   1.253       .  A
O2366     Al2370   1.781       .  S
O2367      C2368   1.264       .  A
C2368      C2687   1.407       .  S
C2369      C2679   1.429       .  S
C2372      C2685   1.452       .  S
C2373      O2374   1.252       .  A
C2373      C2677   1.442       .  S
O2375      C2390   1.262       .  A
O2375     Al2383   1.878       .  S
C2376      O2386   1.266       .  A
C2376      O2377   1.263       .  A
C2376      C2671   1.453       .  S
O2377     Al2379   1.915       .  S
O2378      C2380   1.258       .  A
O2378     Al2379   1.901       .  S
Al2379     O2387   1.883       .  S
Al2379     O2389   1.909       .  S
Al2379     O2388   1.778       .  S
C2380      O2393   1.246       .  A
C2380      C2669   1.418       .  S
O2381      C2391   1.259       .  A
O2381     Al2383   1.872       .  S
O2382      C2395   1.262       .  A
O2382     Al2392   1.942       .  S
Al2383     O2396   1.894       .  S
Al2383     O2393   1.872       .  S
Al2383     O2388   1.788       .  S
O2384      C2391   1.274       .  A
O2384     Al2392   1.955       .  S
O2385      C2394   1.264       .  A
O2385     Al2392   1.943       .  S
O2386     Al2392   1.929       .  S
O2387      C2394   1.253       .  A
O2388     Al2392   1.781       .  S
O2389      C2390   1.265       .  A
C2390      C2676   1.410       .  S
C2391      C2668   1.429       .  S
C2395      O2396   1.252       .  A
C2395      C2666   1.443       .  S
O2397      C2412   1.262       .  A
O2397     Al2405   1.879       .  S
C2398      O2408   1.266       .  A
C2398      O2399   1.263       .  A
C2398      C2664   1.453       .  S
O2399     Al2401   1.915       .  S
O2400      C2402   1.258       .  A
O2400     Al2401   1.901       .  S
Al2401     O2409   1.882       .  S
Al2401     O2411   1.910       .  S
Al2401     O2410   1.779       .  S
C2402      O2415   1.246       .  A
C2402      C2670   1.418       .  S
O2403      C2413   1.259       .  A
O2403     Al2405   1.872       .  S
O2404      C2417   1.262       .  A
O2404     Al2414   1.941       .  S
Al2405     O2418   1.894       .  S
Al2405     O2415   1.872       .  S
Al2405     O2410   1.789       .  S
O2406      C2413   1.274       .  A
O2406     Al2414   1.955       .  S
O2407      C2416   1.264       .  A
O2407     Al2414   1.943       .  S
O2408     Al2414   1.928       .  S
O2409      C2416   1.253       .  A
O2410     Al2414   1.781       .  S
O2411      C2412   1.265       .  A
C2412      C2661   1.410       .  S
C2413      C2657   1.430       .  S
C2416      C2659   1.452       .  S
C2417      O2418   1.252       .  A
C2417      C2655   1.442       .  S
O2419      C2434   1.263       .  A
O2419     Al2427   1.877       .  S
C2420      O2430   1.265       .  A
C2420      O2421   1.263       .  A
C2420      C2660   1.453       .  S
O2421     Al2423   1.913       .  S
O2422      C2424   1.258       .  A
O2422     Al2423   1.902       .  S
Al2423     O2431   1.884       .  S
Al2423     O2433   1.907       .  S
Al2423     O2432   1.778       .  S
C2424      O2437   1.247       .  A
C2424      C2649   1.420       .  S
O2425      C2435   1.259       .  A
O2425     Al2427   1.872       .  S
O2426      C2439   1.262       .  A
O2426     Al2436   1.942       .  S
Al2427     O2440   1.895       .  S
Al2427     O2437   1.876       .  S
Al2427     O2432   1.790       .  S
O2428      C2435   1.274       .  A
O2428     Al2436   1.955       .  S
O2429      C2438   1.264       .  A
O2429     Al2436   1.941       .  S
O2430     Al2436   1.927       .  S
O2431      C2438   1.253       .  A
O2432     Al2436   1.781       .  S
O2433      C2434   1.265       .  A
C2434      C2653   1.407       .  S
C2435      C2648   1.429       .  S
C2439      O2440   1.252       .  A
C2439      C2665   1.443       .  S
O2441      C2456   1.262       .  A
O2441     Al2449   1.879       .  S
C2442      O2452   1.266       .  A
C2442      O2443   1.263       .  A
C2442      C2645   1.453       .  S
O2443     Al2445   1.915       .  S
O2444      C2446   1.258       .  A
O2444     Al2445   1.901       .  S
Al2445     O2453   1.882       .  S
Al2445     O2455   1.910       .  S
Al2445     O2454   1.778       .  S
C2446      O2459   1.246       .  A
C2446      C2644   1.418       .  S
O2447      C2457   1.259       .  A
O2447     Al2449   1.872       .  S
O2448      C2461   1.262       .  A
O2448     Al2458   1.941       .  S
Al2449     O2462   1.894       .  S
Al2449     O2459   1.872       .  S
Al2449     O2454   1.788       .  S
O2450      C2457   1.274       .  A
O2450     Al2458   1.955       .  S
O2451      C2460   1.264       .  A
O2451     Al2458   1.943       .  S
O2452     Al2458   1.929       .  S
O2453      C2460   1.253       .  A
O2454     Al2458   1.781       .  S
O2455      C2456   1.265       .  A
C2456      C2641   1.410       .  S
C2457      C2658   1.430       .  S
C2460      C2639   1.452       .  S
C2461      O2462   1.252       .  A
C2461      C2678   1.442       .  S
O2463     Al2471   1.880       .  S
C2464      O2474   1.265       .  A
C2464      O2465   1.263       .  A
C2464      C2652   1.452       .  S
O2465     Al2467   1.914       .  S
O2466      C2468   1.259       .  A
O2466     Al2467   1.903       .  S
Al2467     O2475   1.885       .  S
Al2467     O2477   1.907       .  S
Al2467     O2476   1.778       .  S
C2468      O2481   1.247       .  A
C2468      C2637   1.419       .  S
O2469      C2479   1.258       .  A
O2469     Al2471   1.871       .  S
O2470      C2483   1.262       .  A
O2470     Al2480   1.940       .  S
Al2471     O2484   1.894       .  S
Al2471     O2481   1.873       .  S
Al2471     O2476   1.788       .  S
O2472      C2479   1.273       .  A
O2472     Al2480   1.954       .  S
O2473      C2482   1.265       .  A
O2473     Al2480   1.944       .  S
O2474     Al2480   1.927       .  S
O2475      C2482   1.254       .  A
O2476     Al2480   1.782       .  S
C2478      C2642   1.411       .  S
C2479      C2634   1.429       .  S
C2482      C2635   1.452       .  S
C2483      O2484   1.253       .  A
C2483      C2632   1.442       .  S
O2485      C2500   1.263       .  A
O2485     Al2493   1.880       .  S
C2486      O2496   1.265       .  A
C2486      O2487   1.262       .  A
C2486      C2629   1.452       .  S
O2487     Al2489   1.914       .  S
O2488      C2490   1.259       .  A
O2488     Al2489   1.903       .  S
Al2489     O2497   1.885       .  S
Al2489     O2499   1.907       .  S
Al2489     O2498   1.778       .  S
C2490      O2503   1.247       .  A
C2490      C2683   1.419       .  S
O2491      C2501   1.258       .  A
O2491     Al2493   1.871       .  S
O2492      C2505   1.262       .  A
O2492     Al2502   1.940       .  S
Al2493     O2506   1.894       .  S
Al2493     O2503   1.874       .  S
Al2493     O2498   1.788       .  S
O2494      C2501   1.274       .  A
O2494     Al2502   1.955       .  S
O2495      C2504   1.265       .  A
O2495     Al2502   1.945       .  S
O2496     Al2502   1.927       .  S
O2497      C2504   1.254       .  A
O2498     Al2502   1.782       .  S
O2499      C2500   1.264       .  A
C2500      C2627   1.410       .  S
C2501      C2647   1.429       .  S
C2504      C2646   1.453       .  S
C2505      O2506   1.253       .  A
C2505      C2626   1.442       .  S
O2507      C2522   1.263       .  A
O2507     Al2515   1.880       .  S
C2508      O2518   1.265       .  A
C2508      O2509   1.263       .  A
C2508      C2686   1.452       .  S
O2509     Al2511   1.915       .  S
O2510      C2512   1.259       .  A
O2510     Al2511   1.903       .  S
Al2511     O2519   1.885       .  S
Al2511     O2521   1.907       .  S
Al2511     O2520   1.778       .  S
C2512      O2525   1.247       .  A
C2512      C2624   1.420   1_565  S
O2513      C2523   1.258       .  A
O2513     Al2515   1.872       .  S
O2514      C2527   1.262       .  A
O2514     Al2524   1.939       .  S
Al2515     O2528   1.894       .  S
Al2515     O2525   1.874       .  S
Al2515     O2520   1.788       .  S
O2516      C2523   1.273       .  A
O2516     Al2524   1.954       .  S
O2517      C2526   1.265       .  A
O2517     Al2524   1.944       .  S
O2518     Al2524   1.926       .  S
O2519      C2526   1.254       .  A
O2520     Al2524   1.782       .  S
O2521      C2522   1.264       .  A
C2522      C2675   1.410       .  S
C2523      C2621   1.429       .  S
C2526      C2663   1.452       .  S
C2527      O2528   1.253       .  A
C2527      C2625   1.442       .  S
O2529      C2544   1.262       .  A
O2529     Al2537   1.879       .  S
C2530      O2540   1.266       .  A
C2530      O2531   1.263       .  A
C2530      C2636   1.453       .  S
O2532      C2534   1.258       .  A
O2532     Al2533   1.902       .  S
Al2533     O2541   1.882       .  S
Al2533     O2543   1.909       .  S
Al2533     O2542   1.778       .  S
C2534      O2547   1.246       .  A
C2534      C2643   1.418       .  S
O2535     Al2537   1.872       .  S
O2536     Al2546   1.942   1_554  S
Al2537     O2550   1.894       .  S
Al2537     O2547   1.872       .  S
Al2537     O2542   1.788       .  S
O2538      C2545   1.274       .  A
O2538     Al2546   1.955       .  S
O2539     Al2546   1.943       .  S
O2540     Al2546   1.929       .  S
O2541      C2548   1.253       .  A
O2543      C2544   1.265       .  A
C2544      C2628   1.410       .  S
C2545      C2667   1.429       .  S
C2548      C2681   1.452       .  S
C2549      O2550   1.252       .  A
C2549      C2620   1.442       .  S
O2551      C2566   1.263       .  A
O2551     Al2559   1.877       .  S
C2552      O2562   1.265       .  A
C2552      O2553   1.263       .  A
C2552      C2640   1.453       .  S
O2553     Al2555   1.913       .  S
O2554      C2556   1.258       .  A
O2554     Al2555   1.902       .  S
Al2555     O2563   1.884       .  S
Al2555     O2565   1.907       .  S
Al2555     O2564   1.778       .  S
C2556      O2569   1.246       .  A
C2556      C2638   1.420   1_565  S
O2557      C2567   1.259       .  A
O2557     Al2559   1.872       .  S
O2558      C2571   1.262       .  A
O2558     Al2568   1.941       .  S
Al2559     O2572   1.895       .  S
Al2559     O2569   1.875       .  S
Al2559     O2564   1.790       .  S
O2560      C2567   1.274       .  A
O2560     Al2568   1.955       .  S
O2561      C2570   1.264       .  A
O2561     Al2568   1.941       .  S
O2562     Al2568   1.927       .  S
O2563      C2570   1.253       .  A
O2564     Al2568   1.781       .  S
O2565      C2566   1.265       .  A
C2567      C2622   1.429       .  S
C2570      C2618   1.451       .  S
C2571      O2572   1.252       .  A
C2571      C2619   1.442       .  S
O2573      C2588   1.263       .  A
O2573     Al2581   1.877       .  S
C2574      O2584   1.265       .  A
C2574      O2575   1.263       .  A
C2574      C2674   1.453       .  S
O2575     Al2577   1.913       .  S
O2576      C2578   1.258       .  A
O2576     Al2577   1.902       .  S
Al2577     O2585   1.884       .  S
Al2577     O2587   1.907       .  S
Al2577     O2586   1.778       .  S
C2578      O2591   1.247       .  A
C2578      C2623   1.420       .  S
O2579      C2589   1.259       .  A
O2579     Al2581   1.872       .  S
O2580      C2593   1.262       .  A
O2580     Al2590   1.941       .  S
Al2581     O2594   1.895       .  S
Al2581     O2591   1.875       .  S
Al2581     O2586   1.790       .  S
O2582      C2589   1.274       .  A
O2582     Al2590   1.955       .  S
O2583      C2592   1.264       .  A
O2583     Al2590   1.941       .  S
O2584     Al2590   1.927       .  S
O2585      C2592   1.253       .  A
O2586     Al2590   1.781       .  S
O2587      C2588   1.264       .  A
C2588      C2688   1.407       .  S
C2589      C2633   1.429       .  S
C2592      C2630   1.452       .  S
C2593      O2594   1.252       .  A
C2593      C2656   1.442       .  S
O2595      C2610   1.263       .  A
O2595     Al2603   1.880       .  S
C2596      O2606   1.265       .  A
C2596      O2597   1.263       .  A
C2596      C2617   1.452       .  S
O2598      C2600   1.259       .  A
O2598     Al2599   1.903       .  S
Al2599     O2607   1.885       .  S
Al2599     O2609   1.907       .  S
Al2599     O2608   1.778       .  S
C2600      O2613   1.247       .  A
C2600      C2650   1.420       .  S
O2601     Al2603   1.872       .  S
O2602     Al2612   1.940       .  S
Al2603     O2616   1.895       .  S
Al2603     O2613   1.874       .  S
Al2603     O2608   1.788       .  S
O2604      C2611   1.273       .  A
O2604     Al2612   1.954       .  S
O2605     Al2612   1.944       .  S
O2606     Al2612   1.926       .  S
O2607      C2614   1.254       .  A
O2609      C2610   1.264       .  A
C2610      C2662   1.410       .  S
C2611      C2680   1.430       .  S
C2614      C2672   1.453       .  S
C2615      O2616   1.253       .  A
C2615      C2631   1.442       .  S
C2619      C2620   1.211       .  T
C2621      C2622   1.203       .  T
C2625      C2626   1.211       .  T
C2627      C2628   1.191       .  T
C2631      C2632   1.211       .  T
C2633      C2634   1.202       .  T
C2635      C2636   1.217       .  T
C2641      C2642   1.192       .  T
C2643      C2644   1.198       .  T
C2645      C2646   1.217       .  T
C2647      C2648   1.203       .  T
C2651      C2652   1.216       .  T
C2653      C2654   1.190       .  T
C2655      C2656   1.211       .  T
C2657      C2658   1.203       .  T
C2661      C2662   1.191       .  T
C2663      C2664   1.216       .  T
C2665      C2666   1.211       .  T
C2667      C2668   1.203       .  T
C2669      C2670   1.198       .  T
C2671      C2672   1.217       .  T
C2673      C2674   1.216       .  T
C2675      C2676   1.191       .  T
C2677      C2678   1.211       .  T
C2679      C2680   1.203       .  T
C2687      C2688   1.190       .  T
