geometry optimzed in LAMMPS
_audit_creation_date              2020-12-01 
_audit_creation_method            'lammps2cif' 
_symmetry_space_group_name_H-M    'P1' 
_symmetry_Int_Tables_number       1 
_symmetry_cell_setting            triclinic 
loop_ 
_symmetry_equiv_pos_as_xyz 
  x,y,z 
_cell_length_a                    41.8837175 
_cell_length_b                    41.967191191795344 
_cell_length_c                    32.82429297333722 
_cell_angle_alpha                 90.62598053748899 
_cell_angle_beta                  90.01303479579668 
_cell_angle_gamma                 119.56527954224588 
loop_ 
_atom_site_label 
_atom_site_type_symbol 
_atom_site_fract_x 
_atom_site_fract_y 
_atom_site_fract_z 
_atom_site_charge 
Fe1        Fe  0.35688176  0.18721104  0.34511533     1.65800
Fe2        Fe  0.36296744  0.26011905  0.39565293     1.73200
Fe3        Fe  0.28551873  0.20235757  0.34415823     1.54400
O4          O  0.29351354  0.18604653  0.28706041    -0.80500
O5          O  0.32201753  0.23991294  0.43810764    -0.78800
O6          O  0.35041378  0.19473330  0.28417512    -0.83000
O7          O  0.30717259  0.13785331  0.34411797    -0.77900
O8          O  0.30274815  0.25270277  0.32050775    -0.79700
O9          O  0.38756079  0.23572406  0.42833506    -0.82400
C10         C  0.27468449  0.12770942  0.35607642     0.98300
C11         C  0.32056393  0.18839533  0.26691552     1.05800
O12         O  0.33515846  0.21676386  0.36136644    -1.11400
O13         O  0.40732272  0.28282628  0.35644929    -0.73800
O14         O  0.41013626  0.23215474  0.34446763    -0.77300
O15         O  0.26404534  0.15019890  0.36559333    -0.78000
C16         C  0.42553825  0.26702011  0.34669048     0.97300
O17         O  0.36270256  0.17813132  0.40532623    -0.76000
O18         O  0.34004648  0.28964847  0.36874170    -0.81200
C19         C  0.28787065  0.22782379  0.43374968     0.99900
C20         C  0.31772826  0.28312232  0.33921153     1.05800
O21         O  0.27153820  0.21724201  0.39946190    -0.76800
C22         C  0.37861545  0.20227089  0.43303441     1.04100
Fe23       Fe  0.20420377  0.33860288  0.66668894     1.65800
Fe24       Fe  0.27759944  0.34637039  0.61693334     1.73200
Fe25       Fe  0.22224774  0.26893446  0.66813232     1.54400
O26         O  0.20693123  0.27726214  0.72544957    -0.80500
O27         O  0.25768630  0.30509302  0.57406841    -0.78800
O28         O  0.21253795  0.33296861  0.72761363    -0.83000
O29         O  0.15554852  0.28828439  0.66675247    -0.77900
O30         O  0.27356990  0.28759701  0.69139440    -0.79700
O31         O  0.25200984  0.36994992  0.58438663    -0.82400
C32         C  0.14600443  0.25562527  0.65565828     0.98300
C33         C  0.20811171  0.30413063  0.74514729     1.05800
O34         O  0.23477512  0.31790224  0.65083645    -1.11400
O35         O  0.29966822  0.39065548  0.65705649    -0.73800
O36         O  0.24831867  0.39248923  0.66814890    -0.77300
O37         O  0.16905250  0.24534290  0.64750757    -0.78000
C38         C  0.28328673  0.40844536  0.66619239     0.97300
O39         O  0.19430021  0.34370454  0.60628157    -0.76000
O40         O  0.30873644  0.32501620  0.64321131    -0.81200
C41         C  0.24631429  0.27115665  0.57819540     0.99900
C42         C  0.30358533  0.30325447  0.67244444     1.05800
O43         O  0.23651005  0.25512487  0.61236388    -0.76800
C44         C  0.21831632  0.36032461  0.57915834     1.04100
Fe45       Fe  0.35554108  0.13894005  0.67825669     1.65800
Fe46       Fe  0.42197915  0.13137671  0.72693176     1.73200
Fe47       Fe  0.44190637  0.20985956  0.67811035     1.54400
O48         O  0.41897531  0.20117526  0.62041229    -0.80500
O49         O  0.44360511  0.17212861  0.77011344    -0.78800
O50         O  0.36995107  0.14509648  0.61755485    -0.83000
O51         O  0.35542431  0.18856835  0.67758565    -0.77900
O52         O  0.47738770  0.19411479  0.65555352    -0.79700
O53         O  0.37366292  0.10836497  0.76020006    -0.82400
C54         C  0.37752618  0.22116806  0.68917979     0.98300
C55         C  0.39404582  0.17417174  0.60036120     1.05800
O56         O  0.40678948  0.16010183  0.69410928    -1.11400
O57         O  0.39947714  0.08677995  0.68715428    -0.73800
O58         O  0.34655927  0.08536673  0.67689421    -0.77300
O59         O  0.41046388  0.23164982  0.69869031    -0.78000
C60         C  0.36537741  0.06910028  0.67862229     0.97300
O61         O  0.34042230  0.13319693  0.73864787    -0.76000
O62         O  0.47376813  0.15262669  0.69954427    -0.81200
C63         C  0.46377470  0.20650884  0.76727810     0.99900
C64         C  0.49092946  0.17641527  0.67224437     1.05800
O65         O  0.46864820  0.22366148  0.73413344    -0.76800
C66         C  0.34859240  0.11678534  0.76554483     1.04100
Fe67       Fe  0.15455956  0.28748636  0.99886771     1.65800
Fe68       Fe  0.08900456  0.21437245  0.94922606     1.73200
Fe69       Fe  0.06698397  0.27037548  0.00266890     1.54400
O70         O  0.09114161  0.28526765  0.05989405    -0.80500
O71         O  0.06747850  0.23454920  0.90775022    -0.78800
O72         O  0.14188770  0.28021416  0.05977184    -0.83000
O73         O  0.15312017  0.33625307  0.99979013    -0.77900
O74         O  0.03335781  0.21879856  0.02436905    -0.79700
O75         O  0.13764313  0.23936623  0.91598935    -0.82400
C76         C  0.13020633  0.34622045  0.98930101     0.98300
C77         C  0.11782420  0.28499760  0.07826638     1.05800
O78         O  0.10322300  0.25719178  0.98410484    -1.11400
O79         O  0.11140998  0.19219635  0.98840030    -0.73800
O80         O  0.16464367  0.24320675  0.99864549    -0.77300
O81         O  0.09658525  0.32363844  0.98319033    -0.78000
C82         C  0.14556550  0.20833278  0.99659339     0.97300
O83         O  0.16832477  0.29698700  0.93867133    -0.76000
O84         O  0.03699188  0.18384030  0.97539749    -0.81200
C85         C  0.04537997  0.24671337  0.91256000     0.99900
C86         C  0.01968864  0.18895932  0.00435676     1.05800
O87         O  0.03922519  0.25685732  0.94697478    -0.76800
C88         C  0.16095099  0.27303769  0.91103999     1.04100
Fe89       Fe  0.30378361  0.13606762  0.01057688     1.65800
Fe90       Fe  0.23048062  0.07025545  0.05895584     1.73200
Fe91       Fe  0.28971654  0.05024766  0.01009774     1.54400
O92         O  0.30473603  0.07364861  0.95270571    -0.80500
O93         O  0.24859048  0.04770031  0.10184818    -0.78800
O94         O  0.29485301  0.12122254  0.94979996    -0.83000
O95         O  0.35324576  0.13541953  0.00800258    -0.77900
O96         O  0.23931800  0.01546096  0.98608859    -0.79700
O97         O  0.25606714  0.11855591  0.09342953    -0.82400
C98         C  0.36428799  0.11406910  0.02085133     0.98300
C99         C  0.30151107  0.09778215  0.93253760     1.05800
O100        O  0.27427417  0.08515047  0.02626003    -1.11400
O101        O  0.20876308  0.09313745  0.01978344    -0.73800
O102        O  0.25953904  0.14609950  0.01042033    -0.77300
O103        O  0.34226604  0.08194118  0.03238526    -0.78000
C104        C  0.22466121  0.12701444  0.01137153     0.97300
O105        O  0.31373268  0.15080324  0.07117574    -0.76000
O106        O  0.20049724  0.01880627  0.02969592    -0.81200
C107        C  0.26245586  0.02694427  0.09870699     0.99900
C108        C  0.20799558  0.50183943  0.00090334     1.05800
O109        O  0.27564890  0.02252566  0.06553118    -0.76800
C110        C  0.28974011  0.14255231  0.09881277     1.04100
Fe111      Fe  0.15604177  0.33827921  0.33307061     1.65800
Fe112      Fe  0.14703861  0.40310827  0.28405243     1.73200
Fe113      Fe  0.22656839  0.42448497  0.33378938     1.54400
O114        O  0.21780252  0.40249535  0.39221032    -0.80500
O115        O  0.18739702  0.42486642  0.24094612    -0.78800
O116        O  0.16169113  0.35322017  0.39366584    -0.83000
O117        O  0.20564578  0.33849416  0.33528006    -0.77900
O118        O  0.21076273  0.46013509  0.35534567    -0.79700
O119        O  0.12434407  0.35430753  0.25069939    -0.82400
C120        C  0.23810674  0.36011678  0.32372727     0.98300
C121        C  0.19072375  0.37743556  0.41161999     1.05800
O122        O  0.17665590  0.38907411  0.31735905    -1.11400
O123        O  0.10281760  0.38073196  0.32366857    -0.73800
O124        O  0.10203545  0.32823139  0.33295118    -0.77300
O125        O  0.24874362  0.39294641  0.31447020    -0.78000
C126        C  0.08545474  0.34672769  0.33160914     0.97300
O127        O  0.15181648  0.32361882  0.27268028    -0.76000
O128        O  0.16782461  0.45493837  0.31163943    -0.81200
C129        C  0.22193235  0.44505938  0.24368091     0.99900
C130        C  0.19208231  0.47271680  0.33889493     1.05800
O131        O  0.23973697  0.44997264  0.27688296    -0.76800
C132        C  0.13537046  0.33123448  0.24526463     1.04100
C133        C  0.24275939  0.46739959  0.13258163     0.24700
C134        C  0.26102416  0.00606583  0.13515841    -0.23400
C135        C  0.27137057  0.52379223  0.17247773     0.19600
C136        C  0.26198887  0.50362207  0.20843676     0.24700
C137        C  0.24103080  0.46523632  0.20679783    -0.23300
C138        C  0.23248700  0.44721749  0.16858742     0.19600
F139        F  0.21213132  0.41012430  0.16616441    -0.13300
F140        F  0.23256897  0.94975375  0.09679406    -0.15600
F141        F  0.26996322  0.52169532  0.24482765    -0.15600
F142        F  0.28814325  0.06104219  0.17592322    -0.13300
C143        C  0.16022660  0.31835069  0.18271497     0.24700
C144        C  0.12979492  0.31400180  0.20501808    -0.23400
C145        C  0.09506305  0.29766291  0.18656810     0.19600
C146        C  0.09079523  0.28645186  0.14583359     0.24700
C147        C  0.12149330  0.29213643  0.12266239    -0.23300
C148        C  0.15622521  0.30780955  0.14171277     0.19600
F149        F  0.18676186  0.31541305  0.12007550    -0.13300
F150        F  0.19431946  0.33552079  0.19973178    -0.15600
F151        F  0.05673104  0.27092461  0.12887456    -0.15600
F152        F  0.06541403  0.29336170  0.20784945    -0.13300
C153        C  0.12992743  0.40398887  0.00883374     0.24700
C154        C  0.14380890  0.38574628  0.98475128    -0.24000
C155        C  0.17407192  0.40619451  0.95981035     0.19600
C156        C  0.19217723  0.44437266  0.96123203     0.24700
C157        C  0.18130212  0.46313682  0.98918257    -0.23300
C158        C  0.14866197  0.44244928  0.01130323     0.19600
F159        F  0.13635085  0.45909182  0.03761902    -0.13300
F160        F  0.10021183  0.38459620  0.03275684    -0.15600
F161        F  0.22220759  0.46266436  0.93736680    -0.15600
F162        F  0.18735331  0.38909765  0.93547484    -0.13300
C163        C  0.21835959  0.17990142  0.98503133     0.24700
C164        C  0.20263524  0.14586431  0.00483485    -0.23400
C165        C  0.16720814  0.13211597  0.02158746     0.19600
C166        C  0.14843241  0.15214469  0.01906169     0.24700
C167        C  0.16482685  0.18661226  0.00036226    -0.23300
C168        C  0.19982880  0.19996857  0.98299578     0.19600
F169        F  0.21591307  0.23227947  0.96291067    -0.13300
F170        F  0.25183767  0.19393990  0.96730831    -0.15600
F171        F  0.11475142  0.13839572  0.03617349    -0.15600
F172        F  0.15123508  0.09997579  0.04193416    -0.13300
C173        C  0.42646969  0.14326918  0.05348676     0.24700
C174        C  0.40385143  0.12656030  0.01946854    -0.23400
C175        C  0.41970377  0.12507897  0.98234194     0.19600
C176        C  0.45790453  0.14234903  0.97841306     0.24700
C177        C  0.48096194  0.16191196  0.01157170    -0.23300
C178        C  0.46476553  0.16089272  0.04961542     0.19600
F179        F  0.48601912  0.17871666  0.08252167    -0.13300
F180        F  0.41152985  0.14439922  0.08978973    -0.15600
F181        F  0.47214998  0.14289392  0.94109480    -0.15600
F182        F  0.39813138  0.10872622  0.94915058    -0.13300
C183        C  0.02241418  0.24824021  0.80276378     0.24700
C184        C  0.48399091  0.22639283  0.80392005    -0.23400
C185        C  0.46606789  0.21846796  0.84171003     0.19600
C186        C  0.98617312  0.22838186  0.87784440     0.24700
C187        C  0.02465954  0.24653783  0.87656079    -0.23300
C188        C  0.04266194  0.25779298  0.83895588     0.19600
F189        F  0.07990078  0.27548154  0.83719214    -0.13300
F190        F  0.04038966  0.25628036  0.76664095    -0.15600
F191        F  0.96826857  0.21684177  0.91380985    -0.15600
F192        F  0.42889868  0.19812420  0.84354983    -0.13300
C193        C  0.30653860  0.12643694  0.86370381     0.24700
C194        C  0.30759603  0.09926072  0.88773139    -0.23400
C195        C  0.31700039  0.07466630  0.86878476     0.19600
C196        C  0.32785208  0.07897674  0.82817647     0.24700
C197        C  0.32968208  0.10790803  0.80526660    -0.23300
C198        C  0.31747588  0.13068163  0.82286273     0.19600
F199        F  0.31840351  0.15862582  0.80146033    -0.13300
F200        F  0.29642180  0.14999233  0.87995248    -0.15600
F201        F  0.33769850  0.05529807  0.81160761    -0.15600
F202        F  0.31721137  0.04705266  0.88975406    -0.13300
C203        C  0.19200344  0.32289522  0.81168020     0.24700
C204        C  0.20220823  0.30026476  0.78981342    -0.23400
C205        C  0.20332351  0.27143504  0.81045130     0.19600
C206        C  0.19133317  0.26347048  0.85063439     0.24700
C207        C  0.17892372  0.28462903  0.87130807    -0.23300
C208        C  0.18054693  0.31513779  0.85210145     0.19600
F209        F  0.16829563  0.33578686  0.87141158    -0.13300
F210        F  0.19091356  0.35122082  0.79342942    -0.15600
F211        F  0.19122357  0.23463441  0.86916508    -0.15600
F212        F  0.21508886  0.25018950  0.79153904    -0.13300
C213        C  0.08416755  0.23117650  0.62410231     0.24700
C214        C  0.10659276  0.22856244  0.65390972    -0.23400
C215        C  0.09054824  0.20249305  0.68477421     0.19600
C216        C  0.05221988  0.18190943  0.68820576     0.24700
C217        C  0.02942480  0.18699254  0.66047193    -0.23300
C218        C  0.04597241  0.21014906  0.62684565     0.19600
F219        F  0.02521396  0.21456243  0.59807097    -0.13300
F220        F  0.09926740  0.25549440  0.59340882    -0.15600
F221        F  0.03774202  0.15978143  0.72082940    -0.15600
F222        F  0.11198293  0.19923834  0.71361840    -0.13300
C223        C  0.34301223  0.46821940  0.67868548     0.24700
C224        C  0.30478361  0.44933486  0.67135719    -0.23400
C225        C  0.28728361  0.47029691  0.66544223     0.19600
C226        C  0.30758167  0.00887130  0.66533516     0.24700
C227        C  0.34572101  0.02811271  0.67341753    -0.23300
C228        C  0.36338041  0.00732384  0.68027136     0.19600
F229        F  0.39983228  0.02420208  0.68897851    -0.13300
F230        F  0.36111573  0.44934228  0.68506643    -0.15600
F231        F  0.28877319  0.02696226  0.65830870    -0.15600
F232        F  0.25067547  0.45384552  0.65763470    -0.13300
C233        C  0.32683600  0.27133935  0.71781237     0.24700
C234        C  0.33094432  0.29158461  0.68211515    -0.23400
C235        C  0.35544185  0.29271154  0.65197168     0.19600
C236        C  0.37225138  0.27112651  0.65559073     0.24700
C237        C  0.36489784  0.24818952  0.68922048    -0.23300
C238        C  0.34323972  0.24940387  0.72096026     0.19600
F239        F  0.33657258  0.22802243  0.75413182    -0.13300
F240        F  0.30494283  0.27081932  0.74862175    -0.15600
F241        F  0.39366445  0.27059162  0.62482498    -0.15600
F242        F  0.36062956  0.31199330  0.61730554    -0.13300
C243        C  0.22348682  0.40442117  0.47815762     0.24700
C244        C  0.19411589  0.37554059  0.45655333    -0.23400
C245        C  0.16984128  0.34368546  0.47795659     0.19600
C246        C  0.17631292  0.33985509  0.51893294     0.24700
C247        C  0.20715464  0.36760897  0.53931816    -0.23300
C248        C  0.22998539  0.40033756  0.51901607     0.19600
F249        F  0.25927631  0.42808768  0.53853150    -0.13300
F250        F  0.24675593  0.43631072  0.45957607    -0.15600
F251        F  0.15408715  0.30771229  0.53765328    -0.15600
F252        F  0.14103568  0.31512552  0.45879930    -0.13300
C253        C  0.02458871  0.28824280  0.33308355     0.24700
C254        C  0.04451022  0.32682052  0.33673435    -0.23400
C255        C  0.02449643  0.34540647  0.34268721     0.19600
C256        C  0.48636873  0.32733056  0.34710716     0.24700
C257        C  0.46630001  0.28899803  0.34019714    -0.23300
C258        C  0.48621647  0.27097370  0.33024105     0.19600
F259        F  0.46883253  0.23431477  0.32271900    -0.13300
F260        F  0.04200400  0.26865332  0.32631620    -0.15600
F261        F  0.46879578  0.34617271  0.35705316    -0.15600
F262        F  0.04225220  0.38248152  0.34634486    -0.13300
C263        C  0.25739749  0.31756392  0.29499082     0.24700
C264        C  0.26411288  0.34623547  0.32191150    -0.23400
C265        C  0.29313656  0.35846836  0.35013824     0.19600
C266        C  0.31336378  0.34012299  0.35360436     0.24700
C267        C  0.30493009  0.30941868  0.32850727    -0.23300
C268        C  0.27801613  0.29981651  0.29753841     0.19600
F269        F  0.26958534  0.27147015  0.27128583    -0.13300
F270        F  0.22956907  0.30556688  0.26735994    -0.15600
F271        F  0.33925089  0.35083610  0.38340066    -0.15600
F272        F  0.29987400  0.38622693  0.37658516    -0.13300
C273        C  0.20089674  0.03407940  0.32159820     0.24700
C274        C  0.20488093  0.01147788  0.35025764    -0.23400
C275        C  0.22810755  0.02821379  0.38439414     0.19600
C276        C  0.24989916  0.06628194  0.38714201     0.24700
C277        C  0.24799225  0.08838138  0.35678645    -0.23300
C278        C  0.22226555  0.07228376  0.32500675     0.19600
F279        F  0.21990502  0.09350598  0.29553451    -0.13300
F280        F  0.17899274  0.01941260  0.28829467    -0.15600
F281        F  0.27412520  0.08149244  0.41848476    -0.15600
F282        F  0.23176966  0.00768394  0.41378901    -0.13300
C283        C  0.27646845  0.16705706  0.16199900     0.24700
C284        C  0.30090720  0.16032353  0.13928254    -0.23400
C285        C  0.33397026  0.16660214  0.15745055     0.19600
C286        C  0.34132905  0.17719857  0.19853878     0.24700
C287        C  0.31579273  0.18197569  0.22210259    -0.23300
C288        C  0.28387967  0.17804189  0.20272444     0.19600
F289        F  0.25898396  0.18374927  0.22330791    -0.13300
F290        F  0.24477618  0.16217077  0.14495985    -0.15600
F291        F  0.37258862  0.18097071  0.21552811    -0.15600
F292        F  0.35798978  0.15996536  0.13630788    -0.13300
C293        C  0.26459848  0.22950393  0.54391116     0.24700
C294        C  0.24711832  0.25066446  0.54190764    -0.23400
C295        C  0.23640182  0.25732940  0.50374833     0.19600
C296        C  0.24616594  0.24602048  0.46791924     0.24700
C297        C  0.26757508  0.22878951  0.46991261    -0.23300
C298        C  0.27512044  0.21896455  0.50808693     0.19600
F299        F  0.29483627  0.20129007  0.51067441    -0.13300
F300        F  0.27494670  0.22240976  0.58038482    -0.15600
F301        F  0.23806461  0.25534439  0.43142335    -0.15600
F302        F  0.21855685  0.27687591  0.50116054    -0.13300
C303        C  0.35865239  0.15945623  0.49146241     0.24700
C304        C  0.38576555  0.19139900  0.47292946    -0.23400
C305        C  0.41744623  0.21531316  0.49504436     0.19600
C306        C  0.42107419  0.20860953  0.53580824     0.24700
C307        C  0.39266678  0.17796896  0.55557490    -0.23300
C308        C  0.36194486  0.15281300  0.53244964     0.19600
F309        F  0.33396923  0.12284175  0.54985931    -0.13300
F310        F  0.32749812  0.13613909  0.47088252    -0.15600
F311        F  0.45199507  0.23301322  0.55608762    -0.15600
F312        F  0.44453074  0.24586781  0.47744871    -0.13300
Fe313      Fe  0.35560519  0.68608113  0.34548003     1.65800
Fe314      Fe  0.36217925  0.75941180  0.39528633     1.73200
Fe315      Fe  0.28461577  0.70179183  0.34420790     1.54400
O316        O  0.29260728  0.68478128  0.28743876    -0.80500
O317        O  0.32125775  0.73987917  0.43773849    -0.78800
O318        O  0.34970741  0.69389691  0.28449789    -0.83000
O319        O  0.30548172  0.63707707  0.34367650    -0.77900
O320        O  0.30187502  0.75196023  0.31990646    -0.79700
O321        O  0.38615007  0.73460387  0.42836358    -0.82400
C322        C  0.27322594  0.62722086  0.35625622     0.98300
C323        C  0.31966124  0.68707520  0.26729204     1.05800
O324        O  0.33420596  0.71604737  0.36131320    -1.11400
O325        O  0.40651779  0.78139174  0.35611606    -0.73800
O326        O  0.40945661  0.73052350  0.34598750    -0.77300
O327        O  0.26315949  0.64996491  0.36658107    -0.78000
C328        C  0.42495983  0.76540976  0.34840041     0.97300
O329        O  0.36049439  0.67677277  0.40578410    -0.76000
O330        O  0.33968880  0.78906418  0.36777608    -0.81200
C331        C  0.28714358  0.72795274  0.43344272     0.99900
C332        C  0.31723525  0.78251951  0.33836726     1.05800
O333        O  0.27074786  0.71732527  0.39919708    -0.76800
C334        C  0.37666927  0.70103203  0.43331401     1.04100
Fe335      Fe  0.20497942  0.83899789  0.66732206     1.65800
Fe336      Fe  0.27818057  0.84672608  0.61723635     1.73200
Fe337      Fe  0.22310348  0.76939648  0.66874040     1.54400
O338        O  0.20796836  0.77786479  0.72616576    -0.80500
O339        O  0.25814105  0.80537331  0.57452259    -0.78800
O340        O  0.21359081  0.83359259  0.72823627    -0.83000
O341        O  0.15641135  0.78872499  0.66780273    -0.77900
O342        O  0.27451297  0.78813621  0.69177752    -0.79700
O343        O  0.25237710  0.87012899  0.58475644    -0.82400
C344        C  0.14685257  0.75609872  0.65662360     0.98300
C345        C  0.20912119  0.80475355  0.74582016     1.05800
O346        O  0.23553470  0.81831264  0.65138247    -1.11400
O347        O  0.30036167  0.89108603  0.65720285    -0.73800
O348        O  0.24900372  0.89287116  0.66839554    -0.77300
O349        O  0.16986319  0.74581007  0.64830242    -0.78000
C350        C  0.28395419  0.90885548  0.66627411     0.97300
O351        O  0.19474499  0.84375429  0.60690043    -0.76000
O352        O  0.30943863  0.82550383  0.64340316    -0.81200
C353        C  0.24672389  0.77143040  0.57861308     0.99900
C354        C  0.30443270  0.80380077  0.67264825     1.05800
O355        O  0.23713421  0.75543986  0.61283689    -0.76800
C356        C  0.21861754  0.86026623  0.57960788     1.04100
Fe357      Fe  0.35570598  0.63883890  0.67844398     1.65800
Fe358      Fe  0.42246531  0.63140959  0.72656489     1.73200
Fe359      Fe  0.44207234  0.70983457  0.67755722     1.54400
O360        O  0.41878215  0.70072722  0.61995496    -0.80500
O361        O  0.44476594  0.67248757  0.76936376    -0.78800
O362        O  0.36966905  0.64463894  0.61775780    -0.83000
O363        O  0.35552778  0.68843391  0.67754590    -0.77900
O364        O  0.47771421  0.69428166  0.65502330    -0.79700
O365        O  0.37452469  0.60889189  0.76053957    -0.82400
C366        C  0.37768166  0.72108534  0.68889563     0.98300
C367        C  0.39356326  0.67361868  0.60028124     1.05800
O368        O  0.40708846  0.66006336  0.69384900    -1.11400
O369        O  0.39937181  0.58640007  0.68729863    -0.73800
O370        O  0.34654503  0.58520094  0.67729595    -0.77300
O371        O  0.41065733  0.73161045  0.69819485    -0.78000
C372        C  0.36522697  0.56879782  0.67898245     0.97300
O373        O  0.34104531  0.63345428  0.73883250    -0.76000
O374        O  0.47382725  0.65219757  0.69834395    -0.81200
C375        C  0.46452193  0.70692195  0.76653653     0.99900
C376        C  0.49100994  0.67613316  0.67118491     1.05800
O377        O  0.46902456  0.72404694  0.73344777    -0.76800
C378        C  0.34937605  0.61722921  0.76577512     1.04100
Fe379      Fe  0.15455195  0.78769321  0.99939366     1.65800
Fe380      Fe  0.08935045  0.71459366  0.94945680     1.73200
Fe381      Fe  0.06679122  0.77018422  0.00298152     1.54400
O382        O  0.09067815  0.78485356  0.06036262    -0.80500
O383        O  0.06796654  0.73484606  0.90795508    -0.78800
O384        O  0.14174423  0.78034926  0.06030712    -0.83000
O385        O  0.15291895  0.83639579  0.00030971    -0.77900
O386        O  0.03319058  0.71844955  0.02438538    -0.79700
O387        O  0.13812818  0.73972061  0.91647710    -0.82400
C388        C  0.12988895  0.84628408  0.99002767     0.98300
C389        C  0.11747617  0.78483935  0.07877536     1.05800
O390        O  0.10327162  0.75728034  0.98448348    -1.11400
O391        O  0.11165187  0.69239161  0.98870233    -0.73800
O392        O  0.16479505  0.74344807  0.99916707    -0.77300
O393        O  0.09628346  0.82361713  0.98393403    -0.78000
C394        C  0.14579650  0.70855617  0.99695372     0.97300
O395        O  0.16846047  0.79732704  0.93919549    -0.76000
O396        O  0.03723314  0.68387197  0.97523042    -0.81200
C397        C  0.04579337  0.74693948  0.91259998     0.99900
C398        C  0.01973347  0.68875540  0.00413232     1.05800
O399        O  0.03935688  0.75688054  0.94701111    -0.76800
C400        C  0.16130174  0.77342721  0.91155732     1.04100
Fe401      Fe  0.30394267  0.63596704  0.01066614     1.65800
Fe402      Fe  0.23026473  0.56996171  0.05814185     1.73200
Fe403      Fe  0.28969415  0.55012047  0.00952072     1.54400
O404        O  0.30515335  0.57385447  0.95240720    -0.80500
O405        O  0.24832603  0.54745469  0.10113537    -0.78800
O406        O  0.29536090  0.62150291  0.94979167    -0.83000
O407        O  0.35340548  0.63522787  0.00840474    -0.77900
O408        O  0.23944486  0.51574317  0.98497552    -0.79700
O409        O  0.25548852  0.61814350  0.09273003    -0.82400
C410        C  0.36428353  0.61368733  0.02109063     0.98300
C411        C  0.30196188  0.59807204  0.93240148     1.05800
O412        O  0.27426656  0.58498471  0.02580846    -1.11400
O413        O  0.20879655  0.59294268  0.01872984    -0.73800
O414        O  0.25966843  0.64603106  0.01029520    -0.77300
O415        O  0.34211540  0.58147330  0.03223392    -0.78000
C416        C  0.22476411  0.62692542  0.01076568     0.97300
O417        O  0.31345193  0.65012373  0.07144685    -0.76000
O418        O  0.20053459  0.51853853  0.02883623    -0.81200
C419        C  0.26213292  0.52664803  0.09794374     0.99900
C420        C  0.20782550  0.00187952  0.00189461     1.05800
O421        O  0.27521033  0.52213065  0.06473690    -0.76800
C422        C  0.28918279  0.64170460  0.09878955     1.04100
Fe423      Fe  0.15518237  0.83778933  0.33355432     1.65800
Fe424      Fe  0.14702257  0.90325832  0.28481358     1.73200
Fe425      Fe  0.22625289  0.92352970  0.33413356     1.54400
O426        O  0.21760309  0.90108183  0.39235996    -0.80500
O427        O  0.18718951  0.92454884  0.24146148    -0.78800
O428        O  0.16092266  0.85269772  0.39418747    -0.83000
O429        O  0.20468401  0.83757876  0.33581005    -0.77900
O430        O  0.21085361  0.95918075  0.35653940    -0.79700
O431        O  0.12372610  0.85434972  0.25142632    -0.82400
C432        C  0.23701205  0.85890731  0.32356534     0.98300
C433        C  0.19032040  0.87646525  0.41195988     1.05800
O434        O  0.17623524  0.88863314  0.31788779    -1.11400
O435        O  0.10299996  0.88134763  0.32472913    -0.73800
O436        O  0.10126631  0.82824821  0.33317867    -0.77300
O437        O  0.24763431  0.89161803  0.31379343    -0.78000
C438        C  0.08515672  0.84721817  0.33193914     0.97300
O439        O  0.15094549  0.82331655  0.27315026    -0.76000
O440        O  0.16874295  0.95528789  0.31247985    -0.81200
C441        C  0.22170035  0.94481966  0.24427121     0.99900
C442        C  0.19301881  0.97260963  0.33991300     1.05800
O443        O  0.23943693  0.94960564  0.27750186    -0.76800
C444        C  0.13464420  0.83118981  0.24580356     1.04100
C445        C  0.24318605  0.96762867  0.13327619     0.24700
C446        C  0.26081825  0.50583658  0.13436261    -0.23400
C447        C  0.27107701  0.02390411  0.17337485     0.19600
C448        C  0.26145482  0.00362985  0.20927467     0.24700
C449        C  0.24083847  0.96522534  0.20749274    -0.23300
C450        C  0.23271564  0.94733297  0.16921873     0.19600
F451        F  0.21258683  0.91023170  0.16664742    -0.13300
F452        F  0.23173943  0.44944913  0.09617579    -0.15600
F453        F  0.26884890  0.02158939  0.24570579    -0.15600
F454        F  0.28869944  0.56094716  0.17489741    -0.13300
C455        C  0.15970305  0.81862668  0.18322730     0.24700
C456        C  0.12918425  0.81413640  0.20546119    -0.23400
C457        C  0.09444915  0.79748967  0.18701547     0.19600
C458        C  0.09026685  0.78612820  0.14632345     0.24700
C459        C  0.12105544  0.79199749  0.12319033    -0.23300
C460        C  0.15578883  0.80795138  0.14227453     0.19600
F461        F  0.18639338  0.81565218  0.12072163    -0.13300
F462        F  0.19377639  0.83598199  0.20028992    -0.15600
F463        F  0.05618391  0.77022658  0.12937360    -0.15600
F464        F  0.06470069  0.79293290  0.20828194    -0.13300
C465        C  0.12981234  0.90404080  0.01029962     0.24700
C466        C  0.14334398  0.88582083  0.98562824    -0.24000
C467        C  0.17316034  0.90631285  0.96013293     0.19600
C468        C  0.19126638  0.94450377  0.96161838     0.24700
C469        C  0.18086948  0.96323420  0.99016450    -0.23300
C470        C  0.14855549  0.94251253  0.01280006     0.19600
F471        F  0.13663111  0.95912866  0.03963964    -0.13300
F472        F  0.10046282  0.88461918  0.03469956    -0.15600
F473        F  0.22084847  0.96286073  0.93715219    -0.15600
F474        F  0.18601569  0.88924246  0.93514858    -0.13300
C475        C  0.21877114  0.68028700  0.98531961     0.24700
C476        C  0.20278901  0.64587700  0.00434731    -0.23400
C477        C  0.16713224  0.63183516  0.02056020     0.19600
C478        C  0.14843596  0.65196899  0.01838918     0.24700
C479        C  0.16509832  0.68682467  0.00054758    -0.23300
C480        C  0.20030832  0.70045084  0.98362821     0.19600
F481        F  0.21666766  0.73312254  0.96427039    -0.13300
F482        F  0.25243518  0.69459514  0.96799783    -0.15600
F483        F  0.11451908  0.63788199  0.03497982    -0.15600
F484        F  0.15080649  0.59924386  0.04001120    -0.13300
C485        C  0.42646044  0.64338945  0.05379192     0.24700
C486        C  0.40383712  0.62604531  0.01995210    -0.23400
C487        C  0.41969115  0.62376675  0.98315245     0.19600
C488        C  0.45790235  0.64103501  0.97924312     0.24700
C489        C  0.48095624  0.66139924  0.01207186    -0.23300
C490        C  0.46475773  0.66098375  0.04993985     0.19600
F491        F  0.48600573  0.67938866  0.08263500    -0.13300
F492        F  0.41151784  0.64511270  0.08986445    -0.15600
F493        F  0.47214555  0.64077590  0.94215675    -0.15600
F494        F  0.39811625  0.60669387  0.95017254    -0.13300
C495        C  0.02339600  0.74767924  0.80243649     0.24700
C496        C  0.48457685  0.72692265  0.80320472    -0.23400
C497        C  0.46641871  0.71909558  0.84084864     0.19600
C498        C  0.98691492  0.72961825  0.87745056     0.24700
C499        C  0.02537868  0.74691980  0.87633774    -0.23300
C500        C  0.04352414  0.75734067  0.83871068     0.19600
F501        F  0.08074217  0.77427704  0.83705379    -0.13300
F502        F  0.04145724  0.75478858  0.76640895    -0.15600
F503        F  0.96882757  0.71898645  0.91341456    -0.15600
F504        F  0.42922007  0.69897795  0.84237980    -0.13300
C505        C  0.30817438  0.62763660  0.86400903     0.24700
C506        C  0.30802649  0.59965680  0.88763174    -0.23400
C507        C  0.31627757  0.57435495  0.86833692     0.19600
C508        C  0.32743963  0.57884164  0.82783353     0.24700
C509        C  0.33045778  0.60848677  0.80539506    -0.23300
C510        C  0.31924810  0.63194416  0.82325506     0.19600
F511        F  0.32137413  0.66060051  0.80221969    -0.13300
F512        F  0.29919385  0.65192273  0.88059739    -0.15600
F513        F  0.33633041  0.55459221  0.81086678    -0.15600
F514        F  0.31495008  0.54579886  0.88884870    -0.13300
C515        C  0.19220679  0.82315454  0.81207646     0.24700
C516        C  0.20305135  0.80089565  0.79047683    -0.23400
C517        C  0.20452024  0.77234255  0.81131735     0.19600
C518        C  0.19233446  0.76429218  0.85144604     0.24700
C519        C  0.17936634  0.78510149  0.87186323    -0.23300
C520        C  0.18054134  0.81531267  0.85243172     0.19600
F521        F  0.16764502  0.83554283  0.87144122    -0.13300
F522        F  0.19065581  0.85114478  0.79359058    -0.15600
F523        F  0.19259053  0.73571577  0.87017491    -0.15600
F524        F  0.21684139  0.75145951  0.79264516    -0.13300
C525        C  0.08517800  0.73150334  0.62476150     0.24700
C526        C  0.10746606  0.72911716  0.65490511    -0.23400
C527        C  0.09131622  0.70344139  0.68609878     0.19600
C528        C  0.05299068  0.68286037  0.68933582     0.24700
C529        C  0.03029494  0.68758385  0.66110351    -0.23300
C530        C  0.04698004  0.71051332  0.62734237     0.19600
F531        F  0.02637264  0.71471774  0.59820142    -0.13300
F532        F  0.10041374  0.75558664  0.59388194    -0.15600
F533        F  0.03840386  0.66103849  0.72216780    -0.15600
F534        F  0.11264122  0.70055302  0.71536963    -0.13300
C535        C  0.34350401  0.96869267  0.67888777     0.24700
C536        C  0.30535541  0.94973263  0.67112711    -0.23400
C537        C  0.28782946  0.97057242  0.66453337     0.19600
C538        C  0.30713751  0.50860803  0.66635309     0.24700
C539        C  0.34537515  0.52776564  0.67387494    -0.23300
C540        C  0.36299759  0.50686014  0.68015404     0.19600
F541        F  0.39954587  0.52363501  0.68829380    -0.13300
F542        F  0.36160665  0.94989976  0.68583007    -0.15600
F543        F  0.28832923  0.52679652  0.65995756    -0.15600
F544        F  0.25130899  0.95400059  0.65616037    -0.13300
C545        C  0.32824835  0.77242987  0.71801621     0.24700
C546        C  0.33179851  0.79211046  0.68201500    -0.23400
C547        C  0.35547380  0.79241763  0.65132027     0.19600
C548        C  0.37195068  0.77053189  0.65476903     0.24700
C549        C  0.36513624  0.74816058  0.68881319    -0.23300
C550        C  0.34436003  0.75021898  0.72104317     0.19600
F551        F  0.33824196  0.72939520  0.75460011    -0.13300
F552        F  0.30715228  0.77273959  0.74927768    -0.15600
F553        F  0.39251446  0.76918063  0.62352098    -0.15600
F554        F  0.36006635  0.81112691  0.61632629    -0.13300
C555        C  0.22308547  0.90376334  0.47838577     0.24700
C556        C  0.19389902  0.87462218  0.45686920    -0.23400
C557        C  0.16998380  0.84267356  0.47833736     0.19600
C558        C  0.17660161  0.83907447  0.51934931     0.24700
C559        C  0.20723019  0.86717200  0.53969228    -0.23300
C560        C  0.22972057  0.89992957  0.51927517     0.19600
F561        F  0.25880521  0.92797267  0.53872515    -0.13300
F562        F  0.24599995  0.93571473  0.45969464    -0.15600
F563        F  0.15476694  0.80687071  0.53815714    -0.15600
F564        F  0.14145280  0.81383152  0.45918992    -0.13300
C565        C  0.02363465  0.79029843  0.32486391     0.24700
C566        C  0.04419278  0.82770323  0.33589203    -0.23400
C567        C  0.02493053  0.84572298  0.34839899     0.19600
C568        C  0.48434358  0.82460990  0.33452837     0.24700
C569        C  0.46594849  0.78727842  0.34510181    -0.23300
C570        C  0.48739936  0.77107531  0.35528636     0.19600
F571        F  0.47133109  0.73592404  0.36828239    -0.13300
F572        F  0.04055311  0.77184995  0.31090633    -0.15600
F573        F  0.46496316  0.84173435  0.32556517    -0.15600
F574        F  0.04350856  0.88175156  0.35911130    -0.13300
C575        C  0.25741312  0.81742835  0.29386708     0.24700
C576        C  0.26306304  0.84507622  0.32185052    -0.23400
C577        C  0.29143507  0.85674074  0.35082718     0.19600
C578        C  0.31204834  0.83879300  0.35392471     0.24700
C579        C  0.30459109  0.80895884  0.32780485    -0.23300
C580        C  0.27841975  0.80003210  0.29613967     0.19600
F581        F  0.27116205  0.77268067  0.26885212    -0.13300
F582        F  0.23030961  0.80610482  0.26540585    -0.15600
F583        F  0.33724231  0.84888878  0.38440613    -0.15600
F584        F  0.29718784  0.88355481  0.37823272    -0.13300
C585        C  0.20080193  0.53404669  0.31927979     0.24700
C586        C  0.20294374  0.51129045  0.34915341    -0.23400
C587        C  0.22402040  0.52773656  0.38471899     0.19600
C588        C  0.24577183  0.56579803  0.38798977     0.24700
C589        C  0.24607730  0.58804381  0.35643027    -0.23300
C590        C  0.22224986  0.57219529  0.32300865     0.19600
F591        F  0.22187160  0.59359893  0.29248205    -0.13300
F592        F  0.18097209  0.51955403  0.28457191    -0.15600
F593        F  0.26801046  0.58082479  0.42096556    -0.15600
F594        F  0.22575053  0.50687124  0.41505324    -0.13300
C595        C  0.27529209  0.66502645  0.16248047     0.24700
C596        C  0.29998312  0.65877680  0.13962222    -0.23400
C597        C  0.33293861  0.66485809  0.15790502     0.19600
C598        C  0.34017951  0.67526675  0.19905491     0.24700
C599        C  0.31464633  0.68007974  0.22258002    -0.23300
C600        C  0.28255750  0.67577306  0.20326757     0.19600
F601        F  0.25736215  0.68094469  0.22394137    -0.13300
F602        F  0.24351578  0.65997477  0.14550210    -0.15600
F603        F  0.37133749  0.67885867  0.21612451    -0.15600
F604        F  0.35700249  0.65828417  0.13676622    -0.13300
C605        C  0.26401348  0.72919119  0.54372341     0.24700
C606        C  0.24711839  0.75091321  0.54211217    -0.23400
C607        C  0.23665107  0.75814134  0.50408615     0.19600
C608        C  0.24617703  0.74689039  0.46804738     0.24700
C609        C  0.26699721  0.72903033  0.46968923    -0.23300
C610        C  0.27422728  0.71862842  0.50768495     0.19600
F611        F  0.29338824  0.70036298  0.50989356    -0.13300
F612        F  0.27411444  0.72152555  0.58002201    -0.15600
F613        F  0.23846786  0.75686135  0.43173102    -0.15600
F614        F  0.21933261  0.77821277  0.50184760    -0.13300
C615        C  0.35590301  0.65929169  0.49255197     0.24700
C616        C  0.38369910  0.69021305  0.47319623    -0.23400
C617        C  0.41626259  0.71330391  0.49437153     0.19600
C618        C  0.42032178  0.70673077  0.53504838     0.24700
C619        C  0.39147668  0.67711275  0.55560245    -0.23300
C620        C  0.35962518  0.65282966  0.53345661     0.19600
F621        F  0.33103060  0.62407508  0.55181130    -0.13300
F622        F  0.32384599  0.63696361  0.47287236    -0.15600
F623        F  0.45214919  0.73022580  0.55448013    -0.15600
F624        F  0.44384323  0.74290380  0.47590414    -0.13300
Fe625      Fe  0.85575624  0.18628599  0.34579367     1.65800
Fe626      Fe  0.86250360  0.25976014  0.39563071     1.73200
Fe627      Fe  0.78477724  0.20206419  0.34441155     1.54400
O628        O  0.79283632  0.18543338  0.28748650    -0.80500
O629        O  0.82146348  0.24046993  0.43801451    -0.78800
O630        O  0.84969638  0.19392352  0.28484538    -0.83000
O631        O  0.80576254  0.13721205  0.34446392    -0.77900
O632        O  0.80212698  0.25231178  0.32042074    -0.79700
O633        O  0.88635610  0.23494748  0.42889865    -0.82400
C634        C  0.77333032  0.12728462  0.35643688     0.98300
C635        C  0.81991464  0.18765788  0.26747783     1.05800
O636        O  0.83437855  0.21626625  0.36168749    -1.11400
O637        O  0.90705371  0.28172599  0.35661990    -0.73800
O638        O  0.90937755  0.23072192  0.34546836    -0.77300
O639        O  0.76300765  0.14997004  0.36617527    -0.78000
C640        C  0.92512642  0.26560603  0.34757954     0.97300
O641        O  0.86112128  0.17722177  0.40607406    -0.76000
O642        O  0.84021164  0.28954026  0.36802039    -0.81200
C643        C  0.78729878  0.22834409  0.43372409     0.99900
C644        C  0.81763057  0.28291928  0.33873856     1.05800
O645        O  0.77084271  0.21734798  0.39954387    -0.76800
C646        C  0.87718424  0.20143537  0.43367749     1.04100
Fe647      Fe  0.70478331  0.33965197  0.66745991     1.65800
Fe648      Fe  0.77781563  0.34703723  0.61733214     1.73200
Fe649      Fe  0.72240419  0.26972105  0.66868490     1.54400
O650        O  0.70742142  0.27822978  0.72617820    -0.80500
O651        O  0.75752043  0.30577271  0.57443550    -0.78800
O652        O  0.71337189  0.33409566  0.72831638    -0.83000
O653        O  0.65600557  0.28950100  0.66800373    -0.77900
O654        O  0.77376606  0.28810567  0.69169978    -0.79700
O655        O  0.75236296  0.37093184  0.58503430    -0.82400
C656        C  0.64627682  0.25681199  0.65690394     0.98300
C657        C  0.70882635  0.30521879  0.74586754     1.05800
O658        O  0.73510424  0.31873371  0.65143789    -1.11400
O659        O  0.80024455  0.39126318  0.65752018    -0.73800
O660        O  0.74905365  0.39337265  0.66867834    -0.77300
O661        O  0.66916778  0.24643438  0.64830449    -0.78000
C662        C  0.78400244  0.40917842  0.66668245     0.97300
O663        O  0.69468022  0.34462155  0.60700914    -0.76000
O664        O  0.80875848  0.32535380  0.64329257    -0.81200
C665        C  0.74605968  0.27181121  0.57850604     0.99900
C666        C  0.80363969  0.30355651  0.67247453     1.05800
O667        O  0.73633558  0.25578325  0.61270485    -0.76800
C668        C  0.71863469  0.36114460  0.57977514     1.04100
Fe669      Fe  0.85551305  0.13861674  0.67862142     1.65800
Fe670      Fe  0.92239435  0.13133889  0.72680898     1.73200
Fe671      Fe  0.94169795  0.20995652  0.67826674     1.54400
O672        O  0.91876892  0.20068919  0.62045887    -0.80500
O673        O  0.94501987  0.17235343  0.76958782    -0.78800
O674        O  0.86978222  0.14449303  0.61796724    -0.83000
O675        O  0.85501651  0.18802958  0.67736773    -0.77900
O676        O  0.97795517  0.19505263  0.65616865    -0.79700
O677        O  0.87457608  0.10917183  0.76106571    -0.82400
C678        C  0.87691449  0.22068542  0.68886280     0.98300
C679        C  0.89374830  0.17354426  0.60061830     1.05800
O680        O  0.90690676  0.16001174  0.69424064    -1.11400
O681        O  0.89914609  0.08624952  0.68770381    -0.73800
O682        O  0.84631993  0.08497482  0.67768029    -0.77300
O683        O  0.90982510  0.23133842  0.69856451    -0.78000
C684        C  0.86501476  0.06860264  0.67943380     0.97300
O685        O  0.84074913  0.13328388  0.73902960    -0.76000
O686        O  0.97358737  0.15187817  0.69816391    -0.81200
C687        C  0.96416935  0.20686296  0.76714058     0.99900
C688        C  0.99091508  0.17626370  0.67146273     1.05800
O689        O  0.96821143  0.22423133  0.73434804    -0.76800
C690        C  0.84929504  0.11737020  0.76617110     1.04100
Fe691      Fe  0.65458008  0.28837289  0.99942973     1.65800
Fe692      Fe  0.58955962  0.21533555  0.94929587     1.73200
Fe693      Fe  0.56686026  0.27079460  0.00271344     1.54400
O694        O  0.59076060  0.28574662  0.06006969    -0.80500
O695        O  0.56825618  0.23561910  0.90766308    -0.78800
O696        O  0.64153564  0.28077266  0.06020097    -0.83000
O697        O  0.65278571  0.33697054  0.00035452    -0.77900
O698        O  0.53353474  0.21913372  0.02431477    -0.79700
O699        O  0.63846034  0.24053534  0.91653890    -0.82400
C700        C  0.62979765  0.34678327  0.98964428     0.98300
C701        C  0.61736038  0.28543807  0.07858819     1.05800
O702        O  0.60338548  0.25796905  0.98430644    -1.11400
O703        O  0.61177609  0.19315010  0.98871020    -0.73800
O704        O  0.66488763  0.24422860  0.99928611    -0.77300
O705        O  0.59624179  0.32408616  0.98332939    -0.78000
C706        C  0.64588301  0.20934658  0.99718103     0.97300
O707        O  0.66870820  0.29813275  0.93933330    -0.76000
O708        O  0.53736282  0.18459629  0.97497904    -0.81200
C709        C  0.54578445  0.24733669  0.91241533     0.99900
C710        C  0.51996473  0.18945482  0.00402542     1.05800
O711        O  0.53929543  0.25715720  0.94686079    -0.76800
C712        C  0.66165238  0.27425268  0.91170335     1.04100
Fe713      Fe  0.80375496  0.13644553  0.01092056     1.65800
Fe714      Fe  0.73029808  0.07078710  0.05917695     1.73200
Fe715      Fe  0.78922916  0.05052019  0.01015696     1.54400
O716        O  0.80440156  0.07404895  0.95287908    -0.80500
O717        O  0.74846444  0.04831053  0.10205190    -0.78800
O718        O  0.79471913  0.12175354  0.95009449    -0.83000
O719        O  0.85309611  0.13550985  0.00820707    -0.77900
O720        O  0.73880926  0.01619035  0.98602872    -0.79700
O721        O  0.75597667  0.11913076  0.09348301    -0.82400
C722        C  0.86397434  0.11399739  0.02097734     0.98300
C723        C  0.80129542  0.09827674  0.93277470     1.05800
O724        O  0.77404954  0.08555269  0.02645809    -1.11400
O725        O  0.70869363  0.09377117  0.01998621    -0.73800
O726        O  0.75962694  0.14669758  0.01100263    -0.77300
O727        O  0.84181458  0.08187804  0.03242952    -0.78000
C728        C  0.72472785  0.12772438  0.01187329     0.97300
O729        O  0.81378201  0.15092103  0.07157571    -0.76000
O730        O  0.70018420  0.01921115  0.03014098    -0.81200
C731        C  0.76204944  0.02731923  0.09882219     0.99900
C732        C  0.70767948  0.50225302  0.00100861     1.05800
O733        O  0.77497317  0.02268212  0.06554876    -0.76800
C734        C  0.78972134  0.14276545  0.09910898     1.04100
Fe735      Fe  0.65555174  0.33817942  0.33340688     1.65800
Fe736      Fe  0.64749408  0.40361631  0.28437741     1.73200
Fe737      Fe  0.72674656  0.42375546  0.33365073     1.54400
O738        O  0.71820534  0.40153291  0.39206896    -0.80500
O739        O  0.68762174  0.42469581  0.24098414    -0.78800
O740        O  0.66147759  0.35325234  0.39399353    -0.83000
O741        O  0.70493604  0.33777561  0.33557339    -0.77900
O742        O  0.71144930  0.45944965  0.35592561    -0.79700
O743        O  0.62404489  0.35467809  0.25116103    -0.82400
C744        C  0.73726390  0.35903090  0.32329588     0.98300
C745        C  0.69090062  0.37699659  0.41173137     1.05800
O746        O  0.67666964  0.38895071  0.31752823    -1.11400
O747        O  0.60345250  0.38191327  0.32417637    -0.73800
O748        O  0.60184557  0.32896752  0.33320452    -0.77300
O749        O  0.74794152  0.39170974  0.31338334    -0.78000
C750        C  0.58566843  0.34784846  0.33167633     0.97300
O751        O  0.65100826  0.32344300  0.27304615    -0.76000
O752        O  0.66922679  0.45559823  0.31206242    -0.81200
C753        C  0.72214894  0.44483504  0.24368408     0.99900
C754        C  0.69343427  0.47279945  0.33958388     1.05800
O755        O  0.73992241  0.44966111  0.27689684    -0.76800
C756        C  0.63470317  0.33130959  0.24568708     1.04100
C757        C  0.74289475  0.46741015  0.13255925     0.24700
C758        C  0.76055597  0.00642536  0.13529005    -0.23400
C759        C  0.77119520  0.52373101  0.17256820     0.19600
C760        C  0.76198873  0.50349993  0.20848802     0.24700
C761        C  0.74122344  0.46510235  0.20680013    -0.23300
C762        C  0.73275165  0.44715506  0.16853862     0.19600
F763        F  0.71260708  0.41004760  0.16604486    -0.13300
F764        F  0.73303633  0.95019790  0.09675051    -0.15600
F765        F  0.76994199  0.52150866  0.24491494    -0.15600
F766        F  0.78694071  0.06130098  0.17624940    -0.13300
C767        C  0.65936618  0.31800123  0.18331801     0.24700
C768        C  0.62901536  0.31410732  0.20541963    -0.23400
C769        C  0.59438416  0.29823781  0.18677579     0.19600
C770        C  0.59017271  0.28710221  0.14601134     0.24700
C771        C  0.62084214  0.29241243  0.12302024    -0.23300
C772        C  0.65543515  0.30753165  0.14231199     0.19600
F773        F  0.68596106  0.31465207  0.12092802    -0.13300
F774        F  0.69337681  0.33468836  0.20053996    -0.15600
F775        F  0.55621039  0.27201371  0.12885975    -0.15600
F776        F  0.56479734  0.29430973  0.20789459    -0.13300
C777        C  0.62943393  0.40455335  0.00901186     0.24700
C778        C  0.64327263  0.38626037  0.98494735    -0.24000
C779        C  0.67343735  0.40663585  0.95986478     0.19600
C780        C  0.69157755  0.44480635  0.96120929     0.24700
C781        C  0.68082558  0.46363018  0.98921118    -0.23300
C782        C  0.64819284  0.44301989  0.01137691     0.19600
F783        F  0.63593966  0.45974323  0.03765538    -0.13300
F784        F  0.59976217  0.38521923  0.03301538    -0.15600
F785        F  0.72156335  0.46302998  0.93726595    -0.15600
F786        F  0.68663152  0.38947148  0.93551298    -0.13300
C787        C  0.71878692  0.18100692  0.98615140     0.24700
C788        C  0.70286400  0.14679059  0.00559543    -0.23400
C789        C  0.66738583  0.13303745  0.02221490     0.19600
C790        C  0.64867345  0.15313271  0.01970825     0.24700
C791        C  0.66518442  0.18768088  0.00118154    -0.23300
C792        C  0.70032100  0.20113872  0.98414473     0.19600
F793        F  0.71659855  0.23360508  0.96436920    -0.13300
F794        F  0.75239494  0.19515794  0.96872438    -0.15600
F795        F  0.61492002  0.13935260  0.03664704    -0.15600
F796        F  0.65128680  0.10081182  0.04239519    -0.13300
C797        C  0.92611187  0.14378690  0.05364384     0.24700
C798        C  0.90352374  0.12635068  0.01981766    -0.23400
C799        C  0.91941131  0.12399580  0.98307387     0.19600
C800        C  0.95763248  0.14116395  0.97926090     0.24700
C801        C  0.98066728  0.16149643  0.01213146    -0.23300
C802        C  0.96440603  0.16126921  0.04989700     0.19600
F803        F  0.98558992  0.17973326  0.08260557    -0.13300
F804        F  0.91113093  0.14571050  0.08960638    -0.15600
F805        F  0.97191628  0.14079412  0.94223322    -0.15600
F806        F  0.89787478  0.10691532  0.95006926    -0.13300
C807        C  0.52235708  0.24764871  0.80250053     0.24700
C808        C  0.98407274  0.22669457  0.80391874    -0.23400
C809        C  0.96594880  0.21814565  0.84159465     0.19600
C810        C  0.48648232  0.22904208  0.87783665     0.24700
C811        C  0.52496077  0.24688898  0.87634645    -0.23300
C812        C  0.54278253  0.25756016  0.83857523     0.19600
F813        F  0.58000628  0.27508284  0.83656831    -0.13300
F814        F  0.54016314  0.25510937  0.76628781    -0.15600
F815        F  0.46871752  0.21817905  0.91396096    -0.15600
F816        F  0.92879731  0.19741789  0.84314790    -0.13300
C817        C  0.80739850  0.12757831  0.86415001     0.24700
C818        C  0.80753882  0.09985505  0.88800876    -0.23400
C819        C  0.81637477  0.07486405  0.86899480     0.19600
C820        C  0.82773937  0.07937343  0.82856652     0.24700
C821        C  0.83039862  0.10873579  0.80585554    -0.23300
C822        C  0.81871145  0.13193044  0.82344750     0.19600
F823        F  0.82053873  0.16035676  0.80219907    -0.13300
F824        F  0.79783591  0.15153653  0.88044881    -0.15600
F825        F  0.83716650  0.05540118  0.81194350    -0.15600
F826        F  0.81545267  0.04659910  0.88973035    -0.13300
C827        C  0.69232639  0.32384119  0.81220593     0.24700
C828        C  0.70300761  0.30148301  0.79054952    -0.23400
C829        C  0.70461277  0.27300741  0.81139701     0.19600
C830        C  0.69268060  0.26511126  0.85161992     0.24700
C831        C  0.67978190  0.28596369  0.87206966    -0.23300
C832        C  0.68089716  0.31614099  0.85263470     0.19600
F833        F  0.66810731  0.33643659  0.87170185    -0.13300
F834        F  0.69064021  0.35175149  0.79370057    -0.15600
F835        F  0.69305789  0.23661280  0.87039407    -0.15600
F836        F  0.71678252  0.25203432  0.79263727    -0.13300
C837        C  0.58439998  0.23108105  0.62506316     0.24700
C838        C  0.60687253  0.22979503  0.65575896    -0.23400
C839        C  0.59094367  0.20500361  0.68779690     0.19600
C840        C  0.55264485  0.18414752  0.69112683     0.24700
C841        C  0.52973876  0.18772339  0.66217672    -0.23300
C842        C  0.54621630  0.20984862  0.62781223     0.19600
F843        F  0.52536844  0.21297093  0.59812559    -0.13300
F844        F  0.59942174  0.25429327  0.59340132    -0.15600
F845        F  0.53824859  0.16323063  0.72464090    -0.15600
F846        F  0.61244828  0.20318882  0.71762784    -0.13300
C847        C  0.84380197  0.46889350  0.67903985     0.24700
C848        C  0.80557767  0.45004308  0.67171401    -0.23400
C849        C  0.78810372  0.47100445  0.66564244     0.19600
C850        C  0.80709870  0.00836743  0.66632322     0.24700
C851        C  0.84525045  0.02757603  0.67434098    -0.23300
C852        C  0.86287592  0.00672854  0.68104544     0.19600
F853        F  0.89931362  0.02355397  0.68981309    -0.13300
F854        F  0.86185565  0.44999549  0.68561846    -0.15600
F855        F  0.78828830  0.02650623  0.65961302    -0.15600
F856        F  0.75148420  0.45457671  0.65791531    -0.13300
C857        C  0.82738007  0.27201388  0.71774453     0.24700
C858        C  0.83079945  0.29154967  0.68165808    -0.23400
C859        C  0.85419710  0.29155328  0.65079890     0.19600
C860        C  0.87065195  0.26964856  0.65427175     0.24700
C861        C  0.86414914  0.24759322  0.68853976    -0.23300
C862        C  0.84355296  0.24985604  0.72084575     0.19600
F863        F  0.83768604  0.22929070  0.75457710    -0.13300
F864        F  0.80642741  0.27248057  0.74907795    -0.15600
F865        F  0.89096081  0.26803547  0.62289742    -0.15600
F866        F  0.85856383  0.31002160  0.61566812    -0.13300
C867        C  0.72313185  0.40458787  0.47840290     0.24700
C868        C  0.69439792  0.37518710  0.45668137    -0.23400
C869        C  0.67076350  0.34304056  0.47801711     0.19600
C870        C  0.67716421  0.33957610  0.51913657     0.24700
C871        C  0.70735079  0.36796658  0.53973433    -0.23300
C872        C  0.72960228  0.40086783  0.51941715     0.19600
F873        F  0.75825630  0.42917421  0.53910442    -0.13300
F874        F  0.74571088  0.43670416  0.45980859    -0.15600
F875        F  0.65560206  0.30724067  0.53784498    -0.15600
F876        F  0.64276432  0.31388655  0.45863921    -0.13300
C877        C  0.52450434  0.29013345  0.32816192     0.24700
C878        C  0.54470428  0.32824070  0.33572890    -0.23400
C879        C  0.52503216  0.34670465  0.34460094     0.19600
C880        C  0.98585546  0.32593248  0.34541038     0.24700
C881        C  0.96603613  0.28728184  0.34173401    -0.23300
C882        C  0.98627764  0.26893851  0.33547556     0.19600
F883        F  0.96921334  0.23185252  0.33202793    -0.13300
F884        F  0.54167313  0.27097727  0.31773468    -0.15600
F885        F  0.96802591  0.34509869  0.35211237    -0.15600
F886        F  0.54316064  0.38343648  0.35159769    -0.13300
C887        C  0.75781070  0.31760547  0.29387000     0.24700
C888        C  0.76330188  0.34521649  0.32181187    -0.23400
C889        C  0.79154371  0.35692880  0.35095222     0.19600
C890        C  0.81219654  0.33904644  0.35425865     0.24700
C891        C  0.80498811  0.30932344  0.32808057    -0.23300
C892        C  0.77894021  0.30036047  0.29626026     0.19600
F893        F  0.77189490  0.27308327  0.26894642    -0.13300
F894        F  0.73074983  0.30616849  0.26533965    -0.15600
F895        F  0.83712627  0.34905109  0.38500951    -0.15600
F896        F  0.79710837  0.38371943  0.37830774    -0.13300
C897        C  0.69993687  0.03382867  0.32092958     0.24700
C898        C  0.70338397  0.01112391  0.34989964    -0.23400
C899        C  0.72592410  0.02773788  0.38453801     0.19600
C900        C  0.74765714  0.06580129  0.38755575     0.24700
C901        C  0.74639086  0.08801170  0.35691484    -0.23300
C902        C  0.72126330  0.07203083  0.32457081     0.19600
F903        F  0.71946981  0.09336547  0.29484599    -0.13300
F904        F  0.67865548  0.01927249  0.28716631    -0.15600
F905        F  0.77129152  0.08090290  0.41942535    -0.15600
F906        F  0.72901719  0.00709158  0.41420617    -0.13300
C907        C  0.77650730  0.16723907  0.16227731     0.24700
C908        C  0.80081721  0.16021863  0.13970292    -0.23400
C909        C  0.83350923  0.16574806  0.15814872     0.19600
C910        C  0.84066173  0.17603546  0.19932863     0.24700
C911        C  0.81529063  0.18125560  0.22268297    -0.23300
C912        C  0.78370275  0.17788943  0.20309287     0.19600
F913        F  0.75890864  0.18384593  0.22354150    -0.13300
F914        F  0.74512199  0.16293661  0.14500269    -0.15600
F915        F  0.87150386  0.17903874  0.21660591    -0.15600
F916        F  0.85730073  0.15865800  0.13717540    -0.13300
C917        C  0.76396336  0.22993697  0.54394013     0.24700
C918        C  0.74671038  0.25131861  0.54209148    -0.23400
C919        C  0.73616931  0.25825282  0.50395461     0.19600
C920        C  0.74593244  0.24702587  0.46803654     0.24700
C921        C  0.76709941  0.22952529  0.46991523    -0.23300
C922        C  0.77445002  0.21944850  0.50804157     0.19600
F923        F  0.79392372  0.20151952  0.51051582    -0.13300
F924        F  0.77410383  0.22252097  0.58035816    -0.15600
F925        F  0.73801586  0.25661145  0.43159736    -0.15600
F926        F  0.71846171  0.27794081  0.50149518    -0.13300
C927        C  0.85688023  0.15916397  0.49249506     0.24700
C928        C  0.88434808  0.19057167  0.47350989    -0.23400
C929        C  0.91661806  0.21395862  0.49501669     0.19600
C930        C  0.92061422  0.20721180  0.53565976     0.24700
C931        C  0.89196586  0.17714239  0.55588899    -0.23300
C932        C  0.86052076  0.15253444  0.53337125     0.19600
F933        F  0.83219612  0.12323579  0.55132744    -0.13300
F934        F  0.82513779  0.13645644  0.47249303    -0.15600
F935        F  0.95215415  0.23099525  0.55538923    -0.15600
F936        F  0.94395304  0.24401124  0.47692920    -0.13300
Fe937      Fe  0.85622433  0.68701220  0.34544074     1.65800
Fe938      Fe  0.86208740  0.75996595  0.39567602     1.73200
Fe939      Fe  0.78471940  0.70206647  0.34407423     1.54400
O940        O  0.79283854  0.68554114  0.28715724    -0.80500
O941        O  0.82092082  0.73985023  0.43791472    -0.78800
O942        O  0.84976948  0.69425955  0.28443439    -0.83000
O943        O  0.80654588  0.63770815  0.34456702    -0.77900
O944        O  0.80172651  0.75232290  0.32022530    -0.79700
O945        O  0.88641345  0.73555711  0.42881977    -0.82400
C946        C  0.77406737  0.62759886  0.35650497     0.98300
C947        C  0.81986401  0.68769583  0.26712893     1.05800
O948        O  0.83441867  0.71660150  0.36139449    -1.11400
O949        O  0.90676753  0.78259487  0.35685166    -0.73800
O950        O  0.90959446  0.73191981  0.34478285    -0.77300
O951        O  0.76336704  0.65007112  0.36579654    -0.78000
C952        C  0.92499995  0.76678928  0.34709970     0.97300
O953        O  0.86191928  0.67802559  0.40566504    -0.76000
O954        O  0.83934093  0.78946774  0.36818873    -0.81200
C955        C  0.78675211  0.72756355  0.43348137     0.99900
C956        C  0.81695982  0.78287727  0.33867937     1.05800
O957        O  0.77050261  0.71698412  0.39916822    -0.76800
C958        C  0.87765387  0.70214114  0.43341247     1.04100
Fe959      Fe  0.70453967  0.83841759  0.66694163     1.65800
Fe960      Fe  0.77798777  0.84603960  0.61747788     1.73200
Fe961      Fe  0.72225712  0.76855022  0.66845605     1.54400
O962        O  0.70704317  0.77710368  0.72577699    -0.80500
O963        O  0.75833843  0.80469822  0.57472836    -0.78800
O964        O  0.71311460  0.83301594  0.72778924    -0.83000
O965        O  0.65585891  0.78820570  0.66738066    -0.77900
O966        O  0.77347031  0.78685210  0.69176862    -0.79700
O967        O  0.75223264  0.86925727  0.58455002    -0.82400
C968        C  0.64621189  0.75559045  0.65607666     0.98300
C969        C  0.70852230  0.80415547  0.74539838     1.05800
O970        O  0.73505555  0.81760640  0.65120083    -1.11400
O971        O  0.79992150  0.89050851  0.65739405    -0.73800
O972        O  0.74852611  0.89229013  0.66813947    -0.77300
O973        O  0.66916391  0.74526135  0.64767396    -0.78000
C974        C  0.78348031  0.90827821  0.66632709     0.97300
O975        O  0.69453491  0.84328391  0.60652795    -0.76000
O976        O  0.80913072  0.82491366  0.64428245    -0.81200
C977        C  0.74637459  0.77063746  0.57864445     0.99900
C978        C  0.80374565  0.80292871  0.67335730     1.05800
O979        O  0.73632570  0.75449685  0.61272081    -0.76800
C980        C  0.71854154  0.85972269  0.57933821     1.04100
Fe981      Fe  0.85633668  0.63937342  0.67850007     1.65800
Fe982      Fe  0.92293790  0.63178178  0.72669748     1.73200
Fe983      Fe  0.94277179  0.71019817  0.67769197     1.54400
O984        O  0.91953704  0.70131383  0.62011398    -0.80500
O985        O  0.94483811  0.67265643  0.76968104    -0.78800
O986        O  0.87034513  0.64532006  0.61775323    -0.83000
O987        O  0.85625223  0.68900777  0.67803516    -0.77900
O988        O  0.97808074  0.69430000  0.65499868    -0.79700
O989        O  0.87481656  0.60898888  0.76033759    -0.82400
C990        C  0.87847245  0.72164309  0.68941340     0.98300
C991        C  0.89436052  0.67427512  0.60033341     1.05800
O992        O  0.90766301  0.66050220  0.69397176    -1.11400
O993        O  0.90015987  0.58704418  0.68713572    -0.73800
O994        O  0.84729106  0.58578916  0.67716189    -0.77300
O995        O  0.91154692  0.73220329  0.69831710    -0.78000
C996        C  0.86602130  0.56942925  0.67882385     0.97300
O997        O  0.84154168  0.63380716  0.73888453    -0.76000
O998        O  0.97452082  0.65279230  0.69890467    -0.81200
C999        C  0.96491119  0.70704026  0.76680743     0.99900
C1000       C  0.99159173  0.67649840  0.67150513     1.05800
O1001       O  0.96973585  0.72416117  0.73363763    -0.76800
C1002       C  0.84976157  0.61742692  0.76573686     1.04100
Fe1003     Fe  0.65456761  0.78813324  0.99895111     1.65800
Fe1004     Fe  0.58926736  0.71487912  0.94916812     1.73200
Fe1005     Fe  0.56683788  0.77071258  0.00239827     1.54400
O1006       O  0.59072666  0.78544964  0.05975377    -0.80500
O1007       O  0.56760683  0.73482784  0.90757412    -0.78800
O1008       O  0.64171095  0.78080849  0.05986348    -0.83000
O1009       O  0.65292928  0.83683330  0.99986388    -0.77900
O1010       O  0.53319154  0.71907236  0.02392489    -0.79700
O1011       O  0.63792463  0.74004469  0.91604363    -0.82400
C1012       C  0.62992392  0.84674230  0.98955423     0.98300
C1013       C  0.61743290  0.78533661  0.07825877     1.05800
O1014       O  0.60326745  0.75770138  0.98400584    -1.11400
O1015       O  0.61180338  0.69288985  0.98837891    -0.73800
O1016       O  0.66492254  0.74397553  0.99874845    -0.77300
O1017       O  0.59635762  0.82408507  0.98324938    -0.78000
C1018       C  0.64595995  0.70909024  0.99655670     0.97300
O1019       O  0.66850267  0.79767016  0.93877816    -0.76000
O1020       O  0.53728871  0.68409988  0.97529432    -0.81200
C1021       C  0.54558624  0.74711475  0.91216005     0.99900
C1022       C  0.51983985  0.68913606  0.00414538     1.05800
O1023       O  0.53936161  0.75734211  0.94649540    -0.76800
C1024       C  0.66127339  0.77371126  0.91118542     1.04100
Fe1025     Fe  0.80386937  0.63620247  0.01055432     1.65800
Fe1026     Fe  0.73022742  0.57033323  0.05837031     1.73200
Fe1027     Fe  0.78946580  0.55030480  0.00962669     1.54400
O1028       O  0.80492198  0.57399904  0.95251866    -0.80500
O1029       O  0.74818072  0.54757744  0.10128229    -0.78800
O1030       O  0.79523664  0.62169422  0.94964651    -0.83000
O1031       O  0.85320524  0.63529829  0.00812178    -0.77900
O1032       O  0.73915624  0.51598747  0.98515755    -0.79700
O1033       O  0.75566063  0.61847675  0.09301208    -0.82400
C1034       C  0.86408753  0.61378855  0.02086916     0.98300
C1035       C  0.80189877  0.59824810  0.93238807     1.05800
O1036       O  0.77413607  0.58524938  0.02588652    -1.11400
O1037       O  0.70881107  0.59347884  0.01909137    -0.73800
O1038       O  0.75973352  0.64643379  0.01023513    -0.77300
O1039       O  0.84192786  0.58166748  0.03231725    -0.78000
C1040       C  0.72483601  0.62741405  0.01087450     0.97300
O1041       O  0.81351995  0.65047826  0.07132356    -0.76000
O1042       O  0.70030856  0.51900709  0.02895662    -0.81200
C1043       C  0.76193520  0.52671923  0.09802898     0.99900
C1044       C  0.70744827  0.00238865  0.00215551     1.05800
O1045       O  0.77500114  0.52225626  0.06479434    -0.76800
C1046       C  0.78936754  0.64212871  0.09880022     1.04100
Fe1047     Fe  0.65518914  0.83771932  0.33326878     1.65800
Fe1048     Fe  0.64626697  0.90276633  0.28459292     1.73200
Fe1049     Fe  0.72564567  0.92391364  0.33410674     1.54400
O1050       O  0.71744512  0.90151969  0.39221610    -0.80500
O1051       O  0.68637971  0.92397608  0.24112016    -0.78800
O1052       O  0.66130928  0.85242057  0.39399040    -0.83000
O1053       O  0.70494551  0.83803283  0.33449293    -0.77900
O1054       O  0.70935299  0.95884434  0.35668763    -0.79700
O1055       O  0.62278877  0.85376030  0.25149014    -0.82400
C1056       C  0.73736407  0.85981058  0.32281158     0.98300
C1057       C  0.69047397  0.87654394  0.41178910     1.05800
O1058       O  0.67579622  0.88852126  0.31769731    -1.11400
O1059       O  0.60251150  0.88084923  0.32482892    -0.73800
O1060       O  0.60120813  0.82804667  0.33416175    -0.77300
O1061       O  0.74788481  0.89269441  0.31384495    -0.78000
C1062       C  0.58505181  0.84700762  0.33364836     0.97300
O1063       O  0.65047701  0.82314232  0.27283543    -0.76000
O1064       O  0.66785182  0.95496957  0.31182617    -0.81200
C1065       C  0.72080776  0.94482133  0.24414558     0.99900
C1066       C  0.69173639  0.97228892  0.33960408     1.05800
O1067       O  0.73844970  0.95004475  0.27753438    -0.76800
C1068       C  0.63395118  0.83084681  0.24562565     1.04100
C1069       C  0.74308310  0.96800355  0.13330738     0.24700
C1070       C  0.76067464  0.50584571  0.13441553    -0.23400
C1071       C  0.77013795  0.02417929  0.17358018     0.19600
C1072       C  0.76031640  0.00382145  0.20940850     0.24700
C1073       C  0.73997803  0.96540836  0.20748105    -0.23300
C1074       C  0.73240635  0.94761120  0.16918038     0.19600
F1075       F  0.71269542  0.91049077  0.16648938    -0.13300
F1076       F  0.73206979  0.44949894  0.09611257    -0.15600
F1077       F  0.76727992  0.02168142  0.24587303    -0.15600
F1078       F  0.78838279  0.56087483  0.17507077    -0.13300
C1079       C  0.65913571  0.81827208  0.18311375     0.24700
C1080       C  0.62858923  0.81397252  0.20516258    -0.23400
C1081       C  0.59399713  0.79778363  0.18640056     0.19600
C1082       C  0.58999090  0.78667602  0.14563090     0.24700
C1083       C  0.62082224  0.79234089  0.12270977    -0.23300
C1084       C  0.65540419  0.80785271  0.14207957     0.19600
F1085       F  0.68606590  0.81535644  0.12075245    -0.13300
F1086       F  0.69310178  0.83521928  0.20044562    -0.15600
F1087       F  0.55603277  0.77121359  0.12841149    -0.15600
F1088       F  0.56421074  0.79341632  0.20743695    -0.13300
C1089       C  0.62975719  0.90431204  0.01039311     0.24700
C1090       C  0.64332867  0.88628530  0.98546300    -0.24000
C1091       C  0.67315984  0.90695779  0.96007523     0.19600
C1092       C  0.69117294  0.94513172  0.96180339     0.24700
C1093       C  0.68066180  0.96368015  0.99048387    -0.23300
C1094       C  0.64842774  0.94277149  0.01317222     0.19600
F1095       F  0.63651111  0.95918072  0.04030160    -0.13300
F1096       F  0.60042872  0.88469250  0.03475250    -0.15600
F1097       F  0.72079484  0.96363936  0.93743067    -0.15600
F1098       F  0.68612026  0.89007887  0.93494547    -0.13300
C1099       C  0.71896875  0.68080807  0.98521686     0.24700
C1100       C  0.70292685  0.64641204  0.00429956    -0.23400
C1101       C  0.66723093  0.63239268  0.02037609     0.19600
C1102       C  0.64855955  0.65253237  0.01806082     0.24700
C1103       C  0.66527530  0.68737960  0.00021285    -0.23300
C1104       C  0.70052085  0.70098695  0.98338533     0.19600
F1105       F  0.71692436  0.73363988  0.96398600    -0.13300
F1106       F  0.75266648  0.69508323  0.96797902    -0.15600
F1107       F  0.61459288  0.63844941  0.03451415    -0.15600
F1108       F  0.65082398  0.59980299  0.03982399    -0.13300
C1109       C  0.92621325  0.64166659  0.05359591     0.24700
C1110       C  0.90360245  0.62606295  0.01930700    -0.23400
C1111       C  0.91944813  0.62558290  0.98180529     0.19600
C1112       C  0.95762954  0.64270529  0.97788536     0.24700
C1113       C  0.98069730  0.66122580  0.01140541    -0.23300
C1114       C  0.96452416  0.65929846  0.04969365     0.19600
F1115       F  0.98582483  0.67622689  0.08286208    -0.13300
F1116       F  0.91126557  0.64179090  0.09024163    -0.15600
F1117       F  0.97189258  0.64425197  0.94032846    -0.15600
F1118       F  0.89790014  0.61035888  0.94832290    -0.13300
C1119       C  0.52296284  0.74799091  0.80207613     0.24700
C1120       C  0.98499161  0.72693562  0.80350322    -0.23400
C1121       C  0.96678494  0.71928784  0.84111740     0.19600
C1122       C  0.48659993  0.72945743  0.87714252     0.24700
C1123       C  0.52507136  0.74700433  0.87595468    -0.23300
C1124       C  0.54315442  0.75766617  0.83831877     0.19600
F1125       F  0.58038263  0.77488936  0.83661417    -0.13300
F1126       F  0.54097732  0.75545406  0.76599811    -0.15600
F1127       F  0.46858804  0.71862031  0.91312962    -0.15600
F1128       F  0.92957152  0.69936022  0.84259711    -0.13300
C1129       C  0.80723057  0.62694469  0.86355849     0.24700
C1130       C  0.80825145  0.59980577  0.88765865    -0.23400
C1131       C  0.81786556  0.57529213  0.86887672     0.19600
C1132       C  0.82898898  0.57968557  0.82837784     0.24700
C1133       C  0.83084259  0.60858643  0.80541852    -0.23300
C1134       C  0.81841117  0.63125179  0.82281812     0.19600
F1135       F  0.81928739  0.65911895  0.80131367    -0.13300
F1136       F  0.79685850  0.65036360  0.87963200    -0.15600
F1137       F  0.83900388  0.55608296  0.81195456    -0.15600
F1138       F  0.81799276  0.54766136  0.88989868    -0.13300
C1139       C  0.69258230  0.82328151  0.81174987     0.24700
C1140       C  0.70272581  0.80051570  0.79006563    -0.23400
C1141       C  0.70383568  0.77177396  0.81088506     0.19600
C1142       C  0.69184963  0.76399267  0.85108332     0.24700
C1143       C  0.67943835  0.78524830  0.87155922    -0.23300
C1144       C  0.68110657  0.81569531  0.85216992     0.19600
F1145       F  0.66882648  0.83640989  0.87127337    -0.13300
F1146       F  0.69151413  0.85154102  0.79330210    -0.15600
F1147       F  0.69168367  0.73520354  0.86979980    -0.15600
F1148       F  0.71555937  0.75042923  0.79212381    -0.13300
C1149       C  0.58450159  0.73075222  0.62413680     0.24700
C1150       C  0.60681726  0.72862285  0.65443898    -0.23400
C1151       C  0.59070226  0.70315833  0.68583022     0.19600
C1152       C  0.55238656  0.68257751  0.68911250     0.24700
C1153       C  0.52965975  0.68708016  0.66072473    -0.23300
C1154       C  0.54629794  0.70977152  0.62678993     0.19600
F1155       F  0.52562837  0.71375371  0.59754810    -0.13300
F1156       F  0.59971085  0.75457033  0.59302487    -0.15600
F1157       F  0.53783935  0.66104669  0.72216395    -0.15600
F1158       F  0.61205640  0.70048322  0.71522641    -0.13300
C1159       C  0.84299171  0.96809212  0.67942297     0.24700
C1160       C  0.80486500  0.94915917  0.67151266    -0.23400
C1161       C  0.78734404  0.97005544  0.66521923     0.19600
C1162       C  0.80798248  0.50928713  0.66630957     0.24700
C1163       C  0.84620890  0.52842357  0.67382183    -0.23300
C1164       C  0.86381510  0.50753162  0.68032692     0.19600
F1165       F  0.90035340  0.52431618  0.68853813    -0.13300
F1166       F  0.86107169  0.94926229  0.68626885    -0.15600
F1167       F  0.78919719  0.52746738  0.65970495    -0.15600
F1168       F  0.75082478  0.95353746  0.65685897    -0.13300
C1169       C  0.82601426  0.76989292  0.71831382     0.24700
C1170       C  0.83122320  0.79150337  0.68350199    -0.23400
C1171       C  0.85716499  0.79431940  0.65432639     0.19600
C1172       C  0.87427837  0.77298600  0.65773443     0.24700
C1173       C  0.86571148  0.74856400  0.69013386    -0.23300
C1174       C  0.84260485  0.74812226  0.72112464     0.19600
F1175       F  0.83477703  0.72533279  0.75319044    -0.13300
F1176       F  0.80285027  0.76782205  0.74843377    -0.15600
F1177       F  0.89710483  0.77407477  0.62773291    -0.15600
F1178       F  0.86360252  0.81509702  0.62066165    -0.13300
C1179       C  0.72416574  0.90330396  0.47791028     0.24700
C1180       C  0.69414558  0.87476193  0.45670808    -0.23400
C1181       C  0.66934403  0.84344328  0.47855000     0.19600
C1182       C  0.67593273  0.83969677  0.51952913     0.24700
C1183       C  0.70739807  0.86702189  0.53947477    -0.23300
C1184       C  0.73073079  0.89932614  0.51875731     0.19600
F1185       F  0.76056484  0.92677266  0.53786763    -0.13300
F1186       F  0.74800004  0.93475905  0.45896385    -0.15600
F1187       F  0.65306833  0.80801980  0.53870030    -0.15600
F1188       F  0.63977181  0.81533332  0.45986554    -0.13300
C1189       C  0.52576874  0.79092754  0.35334092     0.24700
C1190       C  0.54433991  0.82783843  0.34092145    -0.23400
C1191       C  0.52297727  0.84455983  0.33218890     0.19600
C1192       C  0.98626829  0.82650774  0.35102225     0.24700
C1193       C  0.96578032  0.78882118  0.34056894    -0.23300
C1194       C  0.98529581  0.77130259  0.32701769     0.19600
F1195       F  0.96741521  0.73535815  0.31582989    -0.13300
F1196       F  0.54462725  0.77353670  0.36362996    -0.15600
F1197       F  0.96912107  0.84473810  0.36486149    -0.15600
F1198       F  0.53927007  0.88002330  0.32035887    -0.13300
C1199       C  0.75723588  0.81776724  0.29364272     0.24700
C1200       C  0.76357693  0.84615799  0.32083615    -0.23400
C1201       C  0.79237480  0.85823779  0.34934206     0.19600
C1202       C  0.81257981  0.83988206  0.35296064     0.24700
C1203       C  0.80438264  0.80932011  0.32772644    -0.23300
C1204       C  0.77783254  0.79997931  0.29638144     0.19600
F1205       F  0.76971996  0.77183161  0.26994383    -0.13300
F1206       F  0.72978361  0.80606890  0.26556742    -0.15600
F1207       F  0.83812485  0.85037123  0.38310764    -0.15600
F1208       F  0.79887529  0.88583378  0.37593083    -0.13300
C1209       C  0.70000620  0.53402648  0.32265585     0.24700
C1210       C  0.70497128  0.51146243  0.35048544    -0.23400
C1211       C  0.72876558  0.52815885  0.38422149     0.19600
C1212       C  0.75033190  0.56620903  0.38708935     0.24700
C1213       C  0.74746662  0.58830957  0.35744446    -0.23300
C1214       C  0.72102390  0.57222868  0.32634304     0.19600
F1215       F  0.71770531  0.59349378  0.29763412    -0.13300
F1216       F  0.67748011  0.51939120  0.28980805    -0.15600
F1217       F  0.77529281  0.58141762  0.41777438    -0.15600
F1218       F  0.73328696  0.50765220  0.41297175    -0.13300
C1219       C  0.77609564  0.66654808  0.16203713     0.24700
C1220       C  0.80034128  0.65938966  0.13950974    -0.23400
C1221       C  0.83292905  0.66471805  0.15803668     0.19600
C1222       C  0.84018171  0.67521748  0.19915578     0.24700
C1223       C  0.81502733  0.68086612  0.22239276    -0.23300
C1224       C  0.78341463  0.67744717  0.20279132     0.19600
F1225       F  0.75874957  0.68365679  0.22316373    -0.13300
F1226       F  0.74469843  0.66221942  0.14476422    -0.15600
F1227       F  0.87090656  0.67801425  0.21650964    -0.15600
F1228       F  0.85652133  0.65724553  0.13719510    -0.13300
C1229       C  0.76288498  0.72786500  0.54360626     0.24700
C1230       C  0.74653017  0.75008283  0.54208464    -0.23400
C1231       C  0.73634224  0.75768234  0.50410608     0.19600
C1232       C  0.74580575  0.74644636  0.46803265     0.24700
C1233       C  0.76632418  0.72827631  0.46961160    -0.23300
C1234       C  0.77308835  0.71735010  0.50752006     0.19600
F1235       F  0.79179583  0.69862442  0.50961452    -0.13300
F1236       F  0.77249745  0.71965722  0.57988650    -0.15600
F1237       F  0.73840675  0.75676585  0.43176445    -0.15600
F1238       F  0.71940923  0.77812166  0.50196395    -0.13300
C1239       C  0.85750554  0.65974699  0.49215085     0.24700
C1240       C  0.88488381  0.69124553  0.47319920    -0.23400
C1241       C  0.91710178  0.71470610  0.49472494     0.19600
C1242       C  0.92110652  0.70799593  0.53537515     0.24700
C1243       C  0.89252002  0.67786868  0.55560055    -0.23300
C1244       C  0.86115919  0.65313443  0.53304054     0.19600
F1245       F  0.83295018  0.62369486  0.55094748    -0.13300
F1246       F  0.82583464  0.63692041  0.47210214    -0.15600
F1247       F  0.95260010  0.73187492  0.55511125    -0.15600
F1248       F  0.94437852  0.74479954  0.47664109    -0.13300
loop_ 
_geom_bond_atom_site_label_1 
_geom_bond_atom_site_label_2 
_geom_bond_distance 
_geom_bond_site_symmetry_2 
_ccdc_geom_bond_type 
Fe1          O17   2.054       .  S
Fe1           O7   2.090       .  S
Fe1          O14   2.093       .  S
Fe1           O6   2.067       .  S
Fe1          O12   1.936       .  S
Fe2           O5   2.048       .  S
Fe2           O9   2.079       .  S
Fe2          O13   2.073       .  S
Fe2          O18   2.106       .  S
Fe2          O12   1.949       .  S
Fe3          O21   2.089       .  S
Fe3           O8   2.030       .  S
Fe3          O15   2.046       .  S
Fe3           O4   2.072       .  S
Fe3          O12   1.939       .  S
O4           C11   1.274       .  A
O5           C19   1.267       .  A
O6           C11   1.274       .  A
O7           C10   1.272       .  A
O8           C20   1.262       .  A
O9           C22   1.273       .  A
C10          O15   1.263       .  A
C10         C277   1.468       .  S
C11         C287   1.488       .  S
O13          C16   1.273       .  A
O14          C16   1.276       .  A
C16         C257   1.504       .  S
O17          C22   1.269       .  A
O18          C20   1.277       .  A
C19          O21   1.273       .  A
C19         C297   1.472       .  S
C20         C267   1.490       .  S
C22         C304   1.470       .  S
Fe23         O39   2.061       .  S
Fe23         O29   2.089       .  S
Fe23         O36   2.099       .  S
Fe23         O28   2.066       .  S
Fe23         O34   1.937       .  S
Fe24         O27   2.049       .  S
Fe24         O31   2.083       .  S
Fe24         O35   2.072       .  S
Fe24         O40   2.102       .  S
Fe24         O34   1.949       .  S
Fe25         O43   2.089       .  S
Fe25         O30   2.035       .  S
Fe25         O37   2.052       .  S
Fe25         O26   2.069       .  S
Fe25         O34   1.945       .  S
O26          C33   1.273       .  A
O27          C41   1.268       .  A
O28          C33   1.274       .  A
O29          C32   1.273       .  A
O30          C42   1.262       .  A
O31          C44   1.273       .  A
C32          O37   1.264       .  A
C32         C214   1.472       .  S
C33         C204   1.484       .  S
O35          C38   1.272       .  A
O36          C38   1.277       .  A
C38         C224   1.501       .  S
O39          C44   1.270       .  A
O40          C42   1.275       .  A
C41          O43   1.274       .  A
C41         C294   1.472       .  S
C42         C234   1.487       .  S
C44         C247   1.474       .  S
Fe45         O61   2.061       .  S
Fe45         O51   2.086       .  S
Fe45         O58   2.088       .  S
Fe45         O50   2.064       .  S
Fe45         O56   1.943       .  S
Fe46         O49   2.043       .  S
Fe46         O53   2.077       .  S
Fe46         O57   2.074       .  S
Fe46         O62   2.102       .  S
Fe46         O56   1.950       .  S
Fe47         O65   2.075       .  S
Fe47         O52   2.038       .  S
Fe47         O59   2.050       .  S
Fe47         O48   2.069       .  S
Fe47         O56   1.948       .  S
O48          C55   1.274       .  A
O49          C63   1.267       .  A
O50          C55   1.275       .  A
O51          C54   1.270       .  A
O52          C64   1.264       .  A
O53          C66   1.274       .  A
C54          O59   1.262       .  A
C54         C237   1.469       .  S
C55         C307   1.485       .  S
O57          C60   1.272       .  A
O58          C60   1.274       .  A
C60         C227   1.504       .  S
O61          C66   1.271       .  A
O62          C64   1.276       .  A
C63          O65   1.271       .  A
C63         C184   1.463       .  S
C64         C841   1.490       .  S
C66         C197   1.479       .  S
Fe67         O83   2.046       .  S
Fe67         O73   2.077       .  S
Fe67         O80   2.099       .  S
Fe67         O72   2.056   1_556  S
Fe67         O78   1.940       .  S
Fe68         O71   2.040       .  S
Fe68         O75   2.088       .  S
Fe68         O79   2.071       .  S
Fe68         O84   2.097       .  S
Fe68         O78   1.948       .  S
Fe69         O87   2.084   1_554  S
Fe69         O74   2.050       .  S
Fe69         O81   2.059   1_554  S
Fe69         O70   2.072       .  S
Fe69         O78   1.950   1_554  S
O70          C77   1.275       .  A
O71          C85   1.268       .  A
O72          C77   1.274       .  A
O73          C76   1.270       .  A
O74          C86   1.266       .  A
O75          C88   1.273       .  A
C76          O81   1.265       .  A
C76         C154   1.474       .  S
C77         C147   1.477       .  S
O79          C82   1.272       .  A
O80          C82   1.276       .  A
C82         C167   1.492   1_556  S
O83          C88   1.266       .  A
O84          C86   1.275   1_556  A
C85          O87   1.273       .  A
C85         C187   1.464       .  S
C86         C801   1.487   1_455  S
C88         C207   1.469       .  S
Fe89        O105   2.057       .  S
Fe89         O95   2.087       .  S
Fe89        O102   2.093       .  S
Fe89         O94   2.062   1_554  S
Fe89        O100   1.943       .  S
Fe90         O93   2.047       .  S
Fe90         O97   2.084       .  S
Fe90        O101   2.072       .  S
Fe90        O106   2.107       .  S
Fe90        O100   1.947       .  S
Fe91        O109   2.093       .  S
Fe91         O96   2.035   1_554  S
Fe91        O103   2.059       .  S
Fe91         O92   2.083   1_554  S
Fe91        O100   1.940       .  S
O92          C99   1.277       .  A
O93         C107   1.266       .  A
O94          C99   1.275       .  A
O95          C98   1.270       .  A
O96         C420   1.264   1_556  A
O97         C110   1.276       .  A
C98         O103   1.263       .  A
C98         C174   1.472       .  S
C99         C194   1.489       .  S
O101        C104   1.271       .  A
O102        C104   1.274       .  A
C104        C164   1.499       .  S
O105        C110   1.271       .  A
O106        C420   1.278       .  A
C107        O109   1.274       .  A
C107        C134   1.474       .  S
C108        O408   1.264   1_554  A
C108        O418   1.277       .  A
C108        C157   1.493   1_554  S
C110        C284   1.474       .  S
Fe111       O127   2.051       .  S
Fe111       O117   2.074       .  S
Fe111       O124   2.086       .  S
Fe111       O116   2.057       .  S
Fe111       O122   1.940       .  S
Fe112       O115   2.049       .  S
Fe112       O119   2.080       .  S
Fe112       O123   2.077       .  S
Fe112       O128   2.097       .  S
Fe112       O122   1.953       .  S
Fe113       O131   2.097       .  S
Fe113       O118   2.033       .  S
Fe113       O125   2.052       .  S
Fe113       O114   2.090       .  S
Fe113       O122   1.946       .  S
O114        C121   1.279       .  A
O115        C129   1.268       .  A
O116        C121   1.275       .  A
O117        C120   1.267       .  A
O118        C130   1.263       .  A
O119        C132   1.273       .  A
C120        O125   1.262       .  A
C120        C264   1.468       .  S
C121        C244   1.488       .  S
O123        C126   1.272       .  A
O124        C126   1.273       .  A
C126        C254   1.502       .  S
O127        C132   1.269       .  A
O128        C130   1.275       .  A
C129        O131   1.276       .  A
C129        C137   1.475       .  S
C130        C586   1.484       .  S
C132        C144   1.461       .  S
C133        C138   1.401       .  A
C133        C446   1.404       .  A
C133        F452   1.358       .  S
C134        C445   1.404   1_545  A
C134        C447   1.407       .  A
C135        C136   1.399       .  A
C135        C446   1.407       .  A
C135        F454   1.358       .  S
C136        C137   1.404       .  A
C136        F141   1.358       .  S
C137        C138   1.409       .  A
C138        F139   1.358       .  S
F140        C445   1.358       .  S
F142        C447   1.358       .  S
C143        C144   1.403       .  A
C143        C148   1.396       .  A
C143        F150   1.359       .  S
C144        C145   1.400       .  A
C145        C146   1.394       .  A
C145        F152   1.358       .  S
C146        C147   1.411       .  A
C146        F151   1.358       .  S
C147        C148   1.409       .  A
C148        F149   1.358       .  S
C153        C154   1.405   1_554  A
C153        C158   1.405       .  A
C153        F160   1.358       .  S
C154        C155   1.398       .  A
C155        C156   1.394       .  A
C155        F162   1.358       .  S
C156        C157   1.417       .  A
C156        F161   1.359       .  S
C157        C158   1.412   1_556  A
C158        F159   1.357       .  S
C163        C164   1.410   1_556  A
C163        C168   1.401       .  A
C163        F170   1.358       .  S
C164        C165   1.414       .  A
C165        C166   1.409       .  A
C165        F172   1.357       .  S
C166        C167   1.407       .  A
C166        F171   1.357       .  S
C167        C168   1.409   1_554  A
C168        F169   1.358       .  S
C173        C174   1.401       .  A
C173        C178   1.403       .  A
C173        F180   1.357       .  S
C174        C175   1.403   1_554  A
C175        C176   1.400       .  A
C175        F182   1.359       .  S
C176        C177   1.410   1_556  A
C176        F181   1.358       .  S
C177        C710   1.486       .  S
C177        C178   1.412       .  A
C178        F179   1.358       .  S
C183        C188   1.395       .  A
C183        C808   1.402   1_455  A
C183        F190   1.358       .  S
C184        C185   1.406       .  A
C184        C807   1.402       .  A
C185        C810   1.396       .  A
C185        F192   1.359       .  S
C186        C187   1.403   1_655  A
C186        C809   1.395       .  A
C186        F191   1.358       .  S
C187        C188   1.406       .  A
C188        F189   1.358       .  S
C193        C194   1.412       .  A
C193        C198   1.401       .  A
C193        F200   1.358       .  S
C194        C195   1.412       .  A
C195        C196   1.393       .  A
C195        F202   1.358       .  S
C196        C197   1.405       .  A
C196        F201   1.359       .  S
C197        C198   1.407       .  A
C198        F199   1.358       .  S
C203        C204   1.409       .  A
C203        C208   1.397       .  A
C203        F210   1.358       .  S
C204        C205   1.414       .  A
C205        C206   1.396       .  A
C205        F212   1.358       .  S
C206        C207   1.401       .  A
C206        F211   1.358       .  S
C207        C208   1.405       .  A
C208        F209   1.358       .  S
C213        C214   1.398       .  A
C213        C218   1.398       .  A
C213        F220   1.357       .  S
C214        C215   1.405       .  A
C215        C216   1.403       .  A
C215        F222   1.358       .  S
C216        C217   1.411       .  A
C216        F221   1.358       .  S
C217        C688   1.490   1_455  S
C217        C218   1.415       .  A
C218        F219   1.358       .  S
C223        C224   1.412       .  A
C223        C540   1.411       .  A
C223        F230   1.357       .  S
C224        C225   1.410       .  A
C225        C538   1.399       .  A
C225        F232   1.358       .  S
C226        C227   1.413       .  A
C226        C537   1.398   1_545  A
C226        F231   1.358       .  S
C227        C228   1.414       .  A
C228        C535   1.411   1_545  A
C228        F229   1.357       .  S
C233        C234   1.415       .  A
C233        C238   1.399       .  A
C233        F240   1.358       .  S
C234        C235   1.410       .  A
C235        C236   1.401       .  A
C235        F242   1.358       .  S
C236        C237   1.404       .  A
C236        F241   1.358       .  S
C237        C238   1.398       .  A
C238        F239   1.358       .  S
C243        C244   1.412       .  A
C243        C248   1.398       .  A
C243        F250   1.358       .  S
C244        C245   1.412       .  A
C245        C246   1.399       .  A
C245        F252   1.358       .  S
C246        C247   1.404       .  A
C246        F251   1.358       .  S
C247        C248   1.403       .  A
C248        F249   1.358       .  S
C253        C254   1.412       .  A
C253        C882   1.399   1_455  A
C253        F260   1.358       .  S
C254        C255   1.411       .  A
C255        C880   1.411   1_455  A
C255        F262   1.357       .  S
C256        C257   1.415       .  A
C256        C879   1.412       .  A
C256        F261   1.357       .  S
C257        C258   1.411       .  A
C258        C877   1.397       .  A
C258        F259   1.358       .  S
C263        C264   1.397       .  A
C263        C268   1.394       .  A
C263        F270   1.358       .  S
C264        C265   1.405       .  A
C265        C266   1.403       .  A
C265        F272   1.358       .  S
C266        C267   1.411       .  A
C266        F271   1.358       .  S
C267        C268   1.417       .  A
C268        F269   1.358       .  S
C273        C274   1.410       .  A
C273        C278   1.401       .  A
C273        F280   1.358       .  S
C274        C442   1.487   1_545  S
C274        C275   1.415       .  A
C275        C276   1.397       .  A
C275        F282   1.358       .  S
C276        C277   1.397       .  A
C276        F281   1.357       .  S
C277        C278   1.404       .  A
C278        F279   1.358       .  S
C283        C284   1.402       .  A
C283        C288   1.393       .  A
C283        F290   1.358       .  S
C284        C285   1.407       .  A
C285        C286   1.401       .  A
C285        F292   1.358       .  S
C286        C287   1.411       .  A
C286        F291   1.358       .  S
C287        C288   1.414       .  A
C288        F289   1.358       .  S
C293        C294   1.404       .  A
C293        C298   1.398       .  A
C293        F300   1.358       .  S
C294        C295   1.407       .  A
C295        C296   1.398       .  A
C295        F302   1.358       .  S
C296        C297   1.404       .  A
C296        F301   1.358       .  S
C297        C298   1.407       .  A
C298        F299   1.358       .  S
C303        C304   1.404       .  A
C303        C308   1.397       .  A
C303        F310   1.357       .  S
C304        C305   1.402       .  A
C305        C306   1.394       .  A
C305        F312   1.359       .  S
C306        C307   1.414       .  A
C306        F311   1.358       .  S
C307        C308   1.410       .  A
C308        F309   1.358       .  S
Fe313       O329   2.051       .  S
Fe313       O319   2.092       .  S
Fe313       O326   2.101       .  S
Fe313       O318   2.066       .  S
Fe313       O324   1.937       .  S
Fe314       O317   2.047       .  S
Fe314       O321   2.080       .  S
Fe314       O325   2.071       .  S
Fe314       O330   2.105       .  S
Fe314       O324   1.944       .  S
Fe315       O333   2.090       .  S
Fe315       O320   2.031       .  S
Fe315       O327   2.045       .  S
Fe315       O316   2.074       .  S
Fe315       O324   1.937       .  S
O316        C323   1.275       .  A
O317        C331   1.267       .  A
O318        C323   1.275       .  A
O319        C322   1.273       .  A
O320        C332   1.263       .  A
O321        C334   1.274       .  A
C322        O327   1.262       .  A
C322        C589   1.467       .  S
C323        C599   1.488       .  S
O325        C328   1.272       .  A
O326        C328   1.277       .  A
C328        C569   1.500       .  S
O329        C334   1.269       .  A
O330        C332   1.277       .  A
C331        O333   1.273       .  A
C331        C609   1.472       .  S
C332        C579   1.490       .  S
C334        C616   1.467       .  S
Fe335       O351   2.061       .  S
Fe335       O341   2.087       .  S
Fe335       O348   2.097       .  S
Fe335       O340   2.066       .  S
Fe335       O346   1.937       .  S
Fe336       O339   2.047       .  S
Fe336       O343   2.083       .  S
Fe336       O347   2.071       .  S
Fe336       O352   2.100       .  S
Fe336       O346   1.949       .  S
Fe337       O355   2.091       .  S
Fe337       O342   2.035       .  S
Fe337       O349   2.052       .  S
Fe337       O338   2.071       .  S
Fe337       O346   1.944       .  S
O338        C345   1.274       .  A
O339        C353   1.268       .  A
O340        C345   1.275       .  A
O341        C344   1.272       .  A
O342        C354   1.262       .  A
O343        C356   1.273       .  A
C344        O349   1.264       .  A
C344        C526   1.470       .  S
C345        C516   1.485       .  S
O347        C350   1.272       .  A
O348        C350   1.277       .  A
C350        C536   1.499       .  S
O351        C356   1.270       .  A
O352        C354   1.275       .  A
C353        O355   1.274       .  A
C353        C606   1.473       .  S
C354        C546   1.486       .  S
C356        C559   1.474       .  S
Fe357       O373   2.057       .  S
Fe357       O363   2.086       .  S
Fe357       O370   2.088       .  S
Fe357       O362   2.059       .  S
Fe357       O368   1.944       .  S
Fe358       O361   2.043       .  S
Fe358       O365   2.078       .  S
Fe358       O369   2.076       .  S
Fe358       O374   2.101       .  S
Fe358       O368   1.951       .  S
Fe359       O377   2.075       .  S
Fe359       O364   2.038       .  S
Fe359       O371   2.049       .  S
Fe359       O360   2.071       .  S
Fe359       O368   1.949       .  S
O360        C367   1.275       .  A
O361        C375   1.267       .  A
O362        C367   1.274       .  A
O363        C366   1.269       .  A
O364        C376   1.264       .  A
O365        C378   1.274       .  A
C366        O371   1.261       .  A
C366        C549   1.468       .  S
C367        C619   1.482       .  S
O369        C372   1.272       .  A
O370        C372   1.273       .  A
C372        C539   1.505       .  S
O373        C378   1.271       .  A
O374        C376   1.276       .  A
C375        O377   1.271       .  A
C375        C496   1.463       .  S
C376       C1153   1.490       .  S
C378        C509   1.476       .  S
Fe379       O395   2.048       .  S
Fe379       O385   2.078   1_556  S
Fe379       O392   2.102       .  S
Fe379       O384   2.057   1_556  S
Fe379       O390   1.940       .  S
Fe380       O383   2.039       .  S
Fe380       O387   2.088       .  S
Fe380       O391   2.070       .  S
Fe380       O396   2.095       .  S
Fe380       O390   1.948       .  S
Fe381       O399   2.086   1_554  S
Fe381       O386   2.051       .  S
Fe381       O393   2.060   1_554  S
Fe381       O382   2.072       .  S
Fe381       O390   1.951   1_554  S
O382        C389   1.275       .  A
O383        C397   1.268       .  A
O384        C389   1.274       .  A
O385        C388   1.271   1_554  A
O386        C398   1.265       .  A
O387        C400   1.273       .  A
C388        O393   1.265       .  A
C388        C466   1.474       .  S
C389        C459   1.478       .  S
O391        C394   1.272       .  A
O392        C394   1.277       .  A
C394        C479   1.493   1_556  S
O395        C400   1.266       .  A
O396        C398   1.274   1_556  A
C397        O399   1.274       .  A
C397        C499   1.465       .  S
C398       C1113   1.486   1_455  S
C400        C519   1.469       .  S
Fe401       O417   2.057       .  S
Fe401       O407   2.088       .  S
Fe401       O414   2.095       .  S
Fe401       O406   2.061   1_554  S
Fe401       O412   1.941       .  S
Fe402       O405   2.047       .  S
Fe402       O409   2.082       .  S
Fe402       O413   2.072       .  S
Fe402       O418   2.106       .  S
Fe402       O412   1.947       .  S
Fe403       O421   2.092       .  S
Fe403       O408   2.034   1_554  S
Fe403       O415   2.058       .  S
Fe403       O404   2.081   1_554  S
Fe403       O412   1.939       .  S
O404        C411   1.277       .  A
O405        C419   1.267       .  A
O406        C411   1.275       .  A
O407        C410   1.270       .  A
O409        C422   1.276       .  A
C410        O415   1.263       .  A
C410        C486   1.472       .  S
C411        C506   1.488       .  S
O413        C416   1.271       .  A
O414        C416   1.274       .  A
C416        C476   1.500       .  S
O417        C422   1.271       .  A
C419        O421   1.274       .  A
C419        C446   1.473       .  S
C420        C469   1.494   1_544  S
C422        C596   1.474       .  S
Fe423       O439   2.049       .  S
Fe423       O429   2.079       .  S
Fe423       O436   2.090       .  S
Fe423       O428   2.058       .  S
Fe423       O434   1.940       .  S
Fe424       O427   2.049       .  S
Fe424       O431   2.083       .  S
Fe424       O435   2.078       .  S
Fe424       O440   2.101       .  S
Fe424       O434   1.951       .  S
Fe425       O443   2.099       .  S
Fe425       O430   2.031       .  S
Fe425       O437   2.051       .  S
Fe425       O426   2.092       .  S
Fe425       O434   1.942       .  S
O426        C433   1.279       .  A
O427        C441   1.267       .  A
O428        C433   1.275       .  A
O429        C432   1.268       .  A
O430        C442   1.263       .  A
O431        C444   1.274       .  A
C432        O437   1.262       .  A
C432        C576   1.468       .  S
C433        C556   1.488       .  S
O435        C438   1.272       .  A
O436        C438   1.273       .  A
C438        C566   1.499       .  S
O439        C444   1.269       .  A
O440        C442   1.276       .  A
C441        O443   1.277       .  A
C441        C449   1.476       .  S
C444        C456   1.461       .  S
C445        C450   1.401       .  A
C447        C448   1.400       .  A
C448        C449   1.404   1_545  A
C448        F453   1.358       .  S
C449        C450   1.409       .  A
C450        F451   1.358       .  S
C455        C456   1.403       .  A
C455        C460   1.396       .  A
C455        F462   1.359       .  S
C456        C457   1.399       .  A
C457        C458   1.395       .  A
C457        F464   1.358       .  S
C458        C459   1.411       .  A
C458        F463   1.358       .  S
C459        C460   1.409       .  A
C460        F461   1.358       .  S
C465        C466   1.406   1_554  A
C465        C470   1.406       .  A
C465        F472   1.358       .  S
C466        C467   1.399       .  A
C467        C468   1.395       .  A
C467        F474   1.358       .  S
C468        C469   1.417       .  A
C468        F473   1.359       .  S
C469        C470   1.412   1_556  A
C470        F471   1.357       .  S
C475        C476   1.411   1_556  A
C475        C480   1.401       .  A
C475        F482   1.358       .  S
C476        C477   1.414       .  A
C477        C478   1.409       .  A
C477        F484   1.357       .  S
C478        C479   1.408       .  A
C478        F483   1.357       .  S
C479        C480   1.409   1_554  A
C480        F481   1.358       .  S
C485        C486   1.401       .  A
C485        C490   1.403       .  A
C485        F492   1.357       .  S
C486        C487   1.403   1_554  A
C487        C488   1.400       .  A
C487        F494   1.358       .  S
C488        C489   1.410   1_556  A
C488        F493   1.358       .  S
C489       C1022   1.487       .  S
C489        C490   1.412       .  A
C490        F491   1.358       .  S
C495       C1120   1.402   1_455  A
C495        C500   1.394       .  A
C495        F502   1.358       .  S
C496       C1119   1.402       .  A
C496        C497   1.406       .  A
C497       C1122   1.396       .  A
C497        F504   1.359       .  S
C498       C1121   1.396       .  A
C498        C499   1.404   1_655  A
C498        F503   1.358       .  S
C499        C500   1.407       .  A
C500        F501   1.359       .  S
C505        C506   1.412       .  A
C505        C510   1.400       .  A
C505        F512   1.358       .  S
C506        C507   1.413       .  A
C507        C508   1.393       .  A
C507        F514   1.358       .  S
C508        C509   1.404       .  A
C508        F513   1.359       .  S
C509        C510   1.406       .  A
C510        F511   1.358       .  S
C515        C516   1.409       .  A
C515        C520   1.397       .  A
C515        F522   1.358       .  S
C516        C517   1.414       .  A
C517        C518   1.396       .  A
C517        F524   1.358       .  S
C518        C519   1.401       .  A
C518        F523   1.358       .  S
C519        C520   1.405       .  A
C520        F521   1.358       .  S
C525        C526   1.398       .  A
C525        C530   1.398       .  A
C525        F532   1.357       .  S
C526        C527   1.404       .  A
C527        C528   1.403       .  A
C527        F534   1.358       .  S
C528        C529   1.411       .  A
C528        F533   1.358       .  S
C529       C1000   1.490   1_455  S
C529        C530   1.415       .  A
C530        F531   1.358       .  S
C535        C536   1.411       .  A
C535        F542   1.357       .  S
C536        C537   1.410       .  A
C537        F544   1.358       .  S
C538        C539   1.413       .  A
C538        F543   1.358       .  S
C539        C540   1.414       .  A
C540        F541   1.357       .  S
C545        C546   1.415       .  A
C545        C550   1.399       .  A
C545        F552   1.358       .  S
C546        C547   1.410       .  A
C547        C548   1.400       .  A
C547        F554   1.358       .  S
C548        C549   1.404       .  A
C548        F553   1.358       .  S
C549        C550   1.399       .  A
C550        F551   1.358       .  S
C555        C556   1.412       .  A
C555        C560   1.398       .  A
C555        F562   1.358       .  S
C556        C557   1.412       .  A
C557        C558   1.399       .  A
C557        F564   1.358       .  S
C558        C559   1.404       .  A
C558        F563   1.358       .  S
C559        C560   1.403       .  A
C560        F561   1.358       .  S
C565        C566   1.411       .  A
C565       C1194   1.399   1_455  A
C565        F572   1.358       .  S
C566        C567   1.410       .  A
C567       C1192   1.412   1_455  A
C567        F574   1.357       .  S
C568       C1191   1.411       .  A
C568        C569   1.410       .  A
C568        F573   1.357       .  S
C569        C570   1.410       .  A
C570       C1189   1.400       .  A
C570        F571   1.358       .  S
C575        C576   1.397       .  A
C575        C580   1.396       .  A
C575        F582   1.358       .  S
C576        C577   1.404       .  A
C577        C578   1.402       .  A
C577        F584   1.358       .  S
C578        C579   1.411       .  A
C578        F583   1.358       .  S
C579        C580   1.417       .  A
C580        F581   1.358       .  S
C585        C586   1.409       .  A
C585        C590   1.401       .  A
C585        F592   1.358       .  S
C586        C587   1.414       .  A
C587        C588   1.398       .  A
C587        F594   1.358       .  S
C588        C589   1.398       .  A
C588        F593   1.357       .  S
C589        C590   1.404       .  A
C590        F591   1.358       .  S
C595        C596   1.402       .  A
C595        C600   1.393       .  A
C595        F602   1.358       .  S
C596        C597   1.407       .  A
C597        C598   1.401       .  A
C597        F604   1.358       .  S
C598        C599   1.411       .  A
C598        F603   1.358       .  S
C599        C600   1.414       .  A
C600        F601   1.358       .  S
C605        C606   1.404       .  A
C605        C610   1.398       .  A
C605        F612   1.358       .  S
C606        C607   1.408       .  A
C607        C608   1.398       .  A
C607        F614   1.358       .  S
C608        C609   1.404       .  A
C608        F613   1.358       .  S
C609        C610   1.407       .  A
C610        F611   1.358       .  S
C615        C616   1.404       .  A
C615        C620   1.396       .  A
C615        F622   1.358       .  S
C616        C617   1.401       .  A
C617        C618   1.394       .  A
C617        F624   1.359       .  S
C618        C619   1.413       .  A
C618        F623   1.358       .  S
C619        C620   1.410       .  A
C620        F621   1.358       .  S
Fe625       O641   2.052       .  S
Fe625       O631   2.091       .  S
Fe625       O638   2.095       .  S
Fe625       O630   2.065       .  S
Fe625       O636   1.938       .  S
Fe626       O629   2.049       .  S
Fe626       O633   2.080       .  S
Fe626       O637   2.074       .  S
Fe626       O642   2.105       .  S
Fe626       O636   1.948       .  S
Fe627       O645   2.091       .  S
Fe627       O632   2.030       .  S
Fe627       O639   2.047       .  S
Fe627       O628   2.073       .  S
Fe627       O636   1.940       .  S
O628        C635   1.274       .  A
O629        C643   1.267       .  A
O630        C635   1.274       .  A
O631        C634   1.272       .  A
O632        C644   1.262       .  A
O633        C646   1.274       .  A
C634        O639   1.263       .  A
C634        C901   1.468       .  S
C635        C911   1.487       .  S
O637        C640   1.273       .  A
O638        C640   1.276       .  A
C640        C881   1.505       .  S
O641        C646   1.269       .  A
O642        C644   1.277       .  A
C643        O645   1.273       .  A
C643        C921   1.473       .  S
C644        C891   1.489       .  S
C646        C928   1.468       .  S
Fe647       O663   2.063       .  S
Fe647       O653   2.088       .  S
Fe647       O660   2.096       .  S
Fe647       O652   2.066       .  S
Fe647       O658   1.937       .  S
Fe648       O651   2.049       .  S
Fe648       O655   2.084       .  S
Fe648       O659   2.072       .  S
Fe648       O664   2.101       .  S
Fe648       O658   1.949       .  S
Fe649       O667   2.091       .  S
Fe649       O654   2.035       .  S
Fe649       O661   2.052       .  S
Fe649       O650   2.071       .  S
Fe649       O658   1.944       .  S
O650        C657   1.274       .  A
O651        C665   1.268       .  A
O652        C657   1.275       .  A
O653        C656   1.272       .  A
O654        C666   1.262       .  A
O655        C668   1.273       .  A
C656        O661   1.264       .  A
C656        C838   1.471       .  S
C657        C828   1.484       .  S
O659        C662   1.272       .  A
O660        C662   1.277       .  A
C662        C848   1.500       .  S
O663        C668   1.270       .  A
O664        C666   1.275       .  A
C665        O667   1.275       .  A
C665        C918   1.473       .  S
C666        C858   1.486       .  S
C668        C871   1.475       .  S
Fe669       O685   2.059       .  S
Fe669       O675   2.085       .  S
Fe669       O682   2.088       .  S
Fe669       O674   2.061       .  S
Fe669       O680   1.945       .  S
Fe670       O673   2.042       .  S
Fe670       O677   2.080       .  S
Fe670       O681   2.075       .  S
Fe670       O686   2.102       .  S
Fe670       O680   1.952       .  S
Fe671       O689   2.073       .  S
Fe671       O676   2.037       .  S
Fe671       O683   2.050       .  S
Fe671       O672   2.071       .  S
Fe671       O680   1.950       .  S
O672        C679   1.275       .  A
O673        C687   1.266       .  A
O674        C679   1.275       .  A
O675        C678   1.269       .  A
O676        C688   1.265       .  A
O677        C690   1.275       .  A
C678        O683   1.261       .  A
C678        C861   1.469       .  S
C679        C931   1.483       .  S
O681        C684   1.271       .  A
O682        C684   1.273       .  A
C684        C851   1.505       .  S
O685        C690   1.271       .  A
O686        C688   1.276       .  A
C687        O689   1.270       .  A
C687        C808   1.462       .  S
C690        C821   1.477       .  S
Fe691       O707   2.047       .  S
Fe691       O697   2.078   1_556  S
Fe691       O704   2.099       .  S
Fe691       O696   2.055   1_556  S
Fe691       O702   1.939       .  S
Fe692       O695   2.040       .  S
Fe692       O699   2.088       .  S
Fe692       O703   2.071       .  S
Fe692       O708   2.097       .  S
Fe692       O702   1.947       .  S
Fe693       O711   2.085   1_554  S
Fe693       O698   2.049       .  S
Fe693       O705   2.058   1_554  S
Fe693       O694   2.072       .  S
Fe693       O702   1.950   1_554  S
O694        C701   1.275       .  A
O695        C709   1.268       .  A
O696        C701   1.273       .  A
O697        C700   1.271   1_554  A
O698        C710   1.265       .  A
O699        C712   1.273       .  A
C700        O705   1.265       .  A
C700        C778   1.473       .  S
C701        C771   1.477       .  S
O703        C706   1.272       .  A
O704        C706   1.276       .  A
C706        C791   1.492   1_556  S
O707        C712   1.266       .  A
O708        C710   1.274   1_556  A
C709        O711   1.274       .  A
C709        C811   1.465       .  S
C712        C831   1.469       .  S
Fe713       O729   2.057       .  S
Fe713       O719   2.088       .  S
Fe713       O726   2.094       .  S
Fe713       O718   2.062   1_554  S
Fe713       O724   1.942       .  S
Fe714       O717   2.046       .  S
Fe714       O721   2.083       .  S
Fe714       O725   2.072       .  S
Fe714       O730   2.108       .  S
Fe714       O724   1.947       .  S
Fe715       O733   2.094       .  S
Fe715       O720   2.033   1_554  S
Fe715       O727   2.058       .  S
Fe715       O716   2.082   1_554  S
Fe715       O724   1.938       .  S
O716        C723   1.277       .  A
O717        C731   1.266       .  A
O718        C723   1.275       .  A
O719        C722   1.270       .  A
O720       C1044   1.264   1_556  A
O721        C734   1.276       .  A
C722        O727   1.263       .  A
C722        C798   1.472       .  S
C723        C818   1.489       .  S
O725        C728   1.271       .  A
O726        C728   1.274       .  A
C728        C788   1.499       .  S
O729        C734   1.271       .  A
O730       C1044   1.278       .  A
C731        O733   1.274       .  A
C731        C758   1.475       .  S
C732       O1032   1.264   1_554  A
C732       O1042   1.277       .  A
C732        C781   1.493   1_554  S
C734        C908   1.473       .  S
Fe735       O751   2.050       .  S
Fe735       O741   2.078       .  S
Fe735       O748   2.086       .  S
Fe735       O740   2.058       .  S
Fe735       O746   1.939       .  S
Fe736       O739   2.049       .  S
Fe736       O743   2.081       .  S
Fe736       O747   2.076       .  S
Fe736       O752   2.100       .  S
Fe736       O746   1.953       .  S
Fe737       O755   2.100       .  S
Fe737       O742   2.028       .  S
Fe737       O749   2.049       .  S
Fe737       O738   2.094       .  S
Fe737       O746   1.942       .  S
O738        C745   1.280       .  A
O739        C753   1.267       .  A
O740        C745   1.275       .  A
O741        C744   1.268       .  A
O742        C754   1.263       .  A
O743        C756   1.273       .  A
C744        O749   1.261       .  A
C744        C888   1.467       .  S
C745        C868   1.489       .  S
O747        C750   1.271       .  A
O748        C750   1.273       .  A
C750        C878   1.499       .  S
O751        C756   1.269       .  A
O752        C754   1.276       .  A
C753        O755   1.277       .  A
C753        C761   1.476       .  S
C754       C1210   1.486       .  S
C756        C768   1.461       .  S
C757       C1070   1.404       .  A
C757        C762   1.401       .  A
C757       F1076   1.359       .  S
C758       C1069   1.405   1_545  A
C758       C1071   1.407       .  A
C759       C1070   1.407       .  A
C759        C760   1.400       .  A
C759       F1078   1.358       .  S
C760        C761   1.404       .  A
C760        F765   1.358       .  S
C761        C762   1.409       .  A
C762        F763   1.358       .  S
F764       C1069   1.358       .  S
F766       C1071   1.358       .  S
C767        C768   1.402       .  A
C767        C772   1.396       .  A
C767        F774   1.359       .  S
C768        C769   1.400       .  A
C769        C770   1.395       .  A
C769        F776   1.358       .  S
C770        C771   1.411       .  A
C770        F775   1.358       .  S
C771        C772   1.409       .  A
C772        F773   1.358       .  S
C777        C778   1.405   1_554  A
C777        C782   1.405       .  A
C777        F784   1.358       .  S
C778        C779   1.398       .  A
C779        C780   1.394       .  A
C779        F786   1.358       .  S
C780        C781   1.417       .  A
C780        F785   1.359       .  S
C781        C782   1.412   1_556  A
C782        F783   1.357       .  S
C787        C788   1.410   1_556  A
C787        C792   1.401       .  A
C787        F794   1.358       .  S
C788        C789   1.414       .  A
C789        C790   1.409       .  A
C789        F796   1.357       .  S
C790        C791   1.407       .  A
C790        F795   1.357       .  S
C791        C792   1.409   1_554  A
C792        F793   1.358       .  S
C797        C798   1.401       .  A
C797        C802   1.402       .  A
C797        F804   1.357       .  S
C798        C799   1.404   1_554  A
C799        C800   1.400       .  A
C799        F806   1.359       .  S
C800        C801   1.411   1_556  A
C800        F805   1.358       .  S
C801        C802   1.412       .  A
C802        F803   1.358       .  S
C807        C812   1.395       .  A
C807        F814   1.358       .  S
C808        C809   1.406       .  A
C809        F816   1.359       .  S
C810        C811   1.404       .  A
C810        F815   1.358       .  S
C811        C812   1.406       .  A
C812        F813   1.358       .  S
C817        C818   1.412       .  A
C817        C822   1.401       .  A
C817        F824   1.358       .  S
C818        C819   1.413       .  A
C819        C820   1.393       .  A
C819        F826   1.358       .  S
C820        C821   1.404       .  A
C820        F825   1.359       .  S
C821        C822   1.407       .  A
C822        F823   1.358       .  S
C827        C828   1.409       .  A
C827        C832   1.397       .  A
C827        F834   1.358       .  S
C828        C829   1.414       .  A
C829        C830   1.396       .  A
C829        F836   1.358       .  S
C830        C831   1.401       .  A
C830        F835   1.358       .  S
C831        C832   1.404       .  A
C832        F833   1.358       .  S
C837        C838   1.398       .  A
C837        C842   1.398       .  A
C837        F844   1.357       .  S
C838        C839   1.405       .  A
C839        C840   1.403       .  A
C839        F846   1.358       .  S
C840        C841   1.411       .  A
C840        F845   1.358       .  S
C841        C842   1.415       .  A
C842        F843   1.358       .  S
C847        C848   1.412       .  A
C847       C1164   1.411       .  A
C847        F854   1.358       .  S
C848        C849   1.410       .  A
C849       C1162   1.398       .  A
C849        F856   1.358       .  S
C850       C1161   1.399   1_545  A
C850        C851   1.413       .  A
C850        F855   1.358       .  S
C851        C852   1.414       .  A
C852       C1159   1.411   1_545  A
C852        F853   1.357       .  S
C857        C858   1.415       .  A
C857        C862   1.399       .  A
C857        F864   1.358       .  S
C858        C859   1.410       .  A
C859        C860   1.400       .  A
C859        F866   1.358       .  S
C860        C861   1.404       .  A
C860        F865   1.358       .  S
C861        C862   1.399       .  A
C862        F863   1.358       .  S
C867        C868   1.412       .  A
C867        C872   1.399       .  A
C867        F874   1.358       .  S
C868        C869   1.412       .  A
C869        C870   1.399       .  A
C869        F876   1.358       .  S
C870        C871   1.404       .  A
C870        F875   1.358       .  S
C871        C872   1.404       .  A
C872        F873   1.358       .  S
C877        C878   1.411       .  A
C877        F884   1.358       .  S
C878        C879   1.410       .  A
C879        F886   1.357       .  S
C880        C881   1.415       .  A
C880        F885   1.357       .  S
C881        C882   1.412       .  A
C882        F883   1.358       .  S
C887        C888   1.397       .  A
C887        C892   1.395       .  A
C887        F894   1.358       .  S
C888        C889   1.404       .  A
C889        C890   1.402       .  A
C889        F896   1.358       .  S
C890        C891   1.411       .  A
C890        F895   1.358       .  S
C891        C892   1.417       .  A
C892        F893   1.358       .  S
C897        C898   1.410       .  A
C897        C902   1.402       .  A
C897        F904   1.358       .  S
C898       C1066   1.487   1_545  S
C898        C899   1.415       .  A
C899        C900   1.397       .  A
C899        F906   1.358       .  S
C900        C901   1.397       .  A
C900        F905   1.357       .  S
C901        C902   1.404       .  A
C902        F903   1.358       .  S
C907        C908   1.401       .  A
C907        C912   1.393       .  A
C907        F914   1.358       .  S
C908        C909   1.407       .  A
C909        C910   1.401       .  A
C909        F916   1.358       .  S
C910        C911   1.411       .  A
C910        F915   1.358       .  S
C911        C912   1.413       .  A
C912        F913   1.358       .  S
C917        C918   1.404       .  A
C917        C922   1.398       .  A
C917        F924   1.358       .  S
C918        C919   1.408       .  A
C919        C920   1.399       .  A
C919        F926   1.358       .  S
C920        C921   1.405       .  A
C920        F925   1.358       .  S
C921        C922   1.407       .  A
C922        F923   1.358       .  S
C927        C928   1.404       .  A
C927        C932   1.397       .  A
C927        F934   1.357       .  S
C928        C929   1.401       .  A
C929        C930   1.394       .  A
C929        F936   1.359       .  S
C930        C931   1.413       .  A
C930        F935   1.358       .  S
C931        C932   1.410       .  A
C932        F933   1.358       .  S
Fe937       O953   2.052       .  S
Fe937       O943   2.088       .  S
Fe937       O950   2.096       .  S
Fe937       O942   2.066       .  S
Fe937       O948   1.938       .  S
Fe938       O941   2.049       .  S
Fe938       O945   2.080       .  S
Fe938       O949   2.074       .  S
Fe938       O954   2.108       .  S
Fe938       O948   1.948       .  S
Fe939       O957   2.088       .  S
Fe939       O944   2.030       .  S
Fe939       O951   2.044       .  S
Fe939       O940   2.072       .  S
Fe939       O948   1.941       .  S
O940        C947   1.274       .  A
O941        C955   1.267       .  A
O942        C947   1.274       .  A
O943        C946   1.272       .  A
O944        C956   1.262       .  A
O945        C958   1.273       .  A
C946        O951   1.263       .  A
C946       C1213   1.466       .  S
C947       C1223   1.488       .  S
O949        C952   1.273       .  A
O950        C952   1.276       .  A
C952       C1193   1.505       .  S
O953        C958   1.269       .  A
O954        C956   1.277       .  A
C955        O957   1.273       .  A
C955       C1233   1.471       .  S
C956       C1203   1.491       .  S
C958       C1240   1.468       .  S
Fe959       O975   2.060       .  S
Fe959       O965   2.088       .  S
Fe959       O972   2.096       .  S
Fe959       O964   2.064       .  S
Fe959       O970   1.938       .  S
Fe960       O963   2.048       .  S
Fe960       O967   2.084       .  S
Fe960       O971   2.073       .  S
Fe960       O976   2.102       .  S
Fe960       O970   1.948       .  S
Fe961       O979   2.089       .  S
Fe961       O966   2.034       .  S
Fe961       O973   2.051       .  S
Fe961       O962   2.070       .  S
Fe961       O970   1.945       .  S
O962        C969   1.274       .  A
O963        C977   1.268       .  A
O964        C969   1.274       .  A
O965        C968   1.272       .  A
O966        C978   1.262       .  A
O967        C980   1.273       .  A
C968        O973   1.264       .  A
C968       C1150   1.470       .  S
C969       C1140   1.483       .  S
O971        C974   1.272       .  A
O972        C974   1.276       .  A
C974       C1160   1.501       .  S
O975        C980   1.270       .  A
O976        C978   1.276       .  A
C977        O979   1.274       .  A
C977       C1230   1.472       .  S
C978       C1170   1.488       .  S
C980       C1183   1.474       .  S
Fe981       O997   2.058       .  S
Fe981       O987   2.085       .  S
Fe981       O994   2.088       .  S
Fe981       O986   2.061       .  S
Fe981       O992   1.943       .  S
Fe982       O985   2.042       .  S
Fe982       O989   2.078       .  S
Fe982       O993   2.074       .  S
Fe982       O998   2.101       .  S
Fe982       O992   1.951       .  S
Fe983      O1001   2.077       .  S
Fe983       O988   2.037       .  S
Fe983       O995   2.049       .  S
Fe983       O984   2.070       .  S
Fe983       O992   1.948       .  S
O984        C991   1.274       .  A
O985        C999   1.266       .  A
O986        C991   1.275       .  A
O987        C990   1.270       .  A
O988       C1000   1.264       .  A
O989       C1002   1.274       .  A
C990        O995   1.262       .  A
C990       C1173   1.469       .  S
C991       C1243   1.484       .  S
O993        C996   1.272       .  A
O994        C996   1.274       .  A
C996       C1163   1.504       .  S
O997       C1002   1.271       .  A
O998       C1000   1.276       .  A
C999       O1001   1.271       .  A
C999       C1120   1.463       .  S
C1002      C1133   1.478       .  S
Fe1003     O1019   2.047       .  S
Fe1003     O1009   2.078       .  S
Fe1003     O1016   2.101       .  S
Fe1003     O1008   2.057   1_556  S
Fe1003     O1014   1.941       .  S
Fe1004     O1007   2.040       .  S
Fe1004     O1011   2.086       .  S
Fe1004     O1015   2.070       .  S
Fe1004     O1020   2.096       .  S
Fe1004     O1014   1.948       .  S
Fe1005     O1023   2.085   1_554  S
Fe1005     O1010   2.050       .  S
Fe1005     O1017   2.059   1_554  S
Fe1005     O1006   2.071       .  S
Fe1005     O1014   1.951   1_554  S
O1006      C1013   1.275       .  A
O1007      C1021   1.268       .  A
O1008      C1013   1.274       .  A
O1009      C1012   1.271       .  A
O1010      C1022   1.265       .  A
O1011      C1024   1.273       .  A
C1012      O1017   1.265       .  A
C1012      C1090   1.474       .  S
C1013      C1083   1.478       .  S
O1015      C1018   1.272       .  A
O1016      C1018   1.277       .  A
C1018      C1103   1.493   1_556  S
O1019      C1024   1.266       .  A
O1020      C1022   1.274   1_556  A
C1021      O1023   1.274       .  A
C1021      C1123   1.465       .  S
C1024      C1143   1.468       .  S
Fe1025     O1041   2.058       .  S
Fe1025     O1031   2.087       .  S
Fe1025     O1038   2.094       .  S
Fe1025     O1030   2.063   1_554  S
Fe1025     O1036   1.942       .  S
Fe1026     O1029   2.049       .  S
Fe1026     O1033   2.082       .  S
Fe1026     O1037   2.073       .  S
Fe1026     O1042   2.105       .  S
Fe1026     O1036   1.947       .  S
Fe1027     O1045   2.092       .  S
Fe1027     O1032   2.034   1_554  S
Fe1027     O1039   2.059       .  S
Fe1027     O1028   2.080   1_554  S
Fe1027     O1036   1.939       .  S
O1028      C1035   1.277       .  A
O1029      C1043   1.267       .  A
O1030      C1035   1.275       .  A
O1031      C1034   1.270       .  A
O1033      C1046   1.276       .  A
C1034      O1039   1.263       .  A
C1034      C1110   1.472       .  S
C1035      C1130   1.489       .  S
O1037      C1040   1.271       .  A
O1038      C1040   1.274       .  A
C1040      C1100   1.500       .  S
O1041      C1046   1.272       .  A
C1043      O1045   1.273       .  A
C1043      C1070   1.474       .  S
C1044      C1093   1.494   1_544  S
C1046      C1220   1.474       .  S
Fe1047     O1063   2.050       .  S
Fe1047     O1053   2.078       .  S
Fe1047     O1060   2.091       .  S
Fe1047     O1052   2.058       .  S
Fe1047     O1058   1.939       .  S
Fe1048     O1051   2.050       .  S
Fe1048     O1055   2.081       .  S
Fe1048     O1059   2.077       .  S
Fe1048     O1064   2.102       .  S
Fe1048     O1058   1.952       .  S
Fe1049     O1067   2.098       .  S
Fe1049     O1054   2.032       .  S
Fe1049     O1061   2.052       .  S
Fe1049     O1050   2.088       .  S
Fe1049     O1058   1.944       .  S
O1050      C1057   1.278       .  A
O1051      C1065   1.268       .  A
O1052      C1057   1.275       .  A
O1053      C1056   1.269       .  A
O1054      C1066   1.263       .  A
O1055      C1068   1.273       .  A
C1056      O1061   1.263       .  A
C1056      C1200   1.469       .  S
C1057      C1180   1.489       .  S
O1059      C1062   1.273       .  A
O1060      C1062   1.274       .  A
C1062      C1190   1.504       .  S
O1063      C1068   1.268       .  A
O1064      C1066   1.276       .  A
C1065      O1067   1.277       .  A
C1065      C1073   1.476       .  S
C1068      C1080   1.462       .  S
C1069      C1074   1.401       .  A
C1071      C1072   1.399       .  A
C1072      C1073   1.404   1_545  A
C1072      F1077   1.358       .  S
C1073      C1074   1.409       .  A
C1074      F1075   1.358       .  S
C1079      C1080   1.403       .  A
C1079      C1084   1.396       .  A
C1079      F1086   1.359       .  S
C1080      C1081   1.400       .  A
C1081      C1082   1.395       .  A
C1081      F1088   1.358       .  S
C1082      C1083   1.411       .  A
C1082      F1087   1.358       .  S
C1083      C1084   1.409       .  A
C1084      F1085   1.358       .  S
C1089      C1090   1.406   1_554  A
C1089      C1094   1.406       .  A
C1089      F1096   1.358       .  S
C1090      C1091   1.398       .  A
C1091      C1092   1.394       .  A
C1091      F1098   1.358       .  S
C1092      C1093   1.417       .  A
C1092      F1097   1.359       .  S
C1093      C1094   1.412   1_556  A
C1094      F1095   1.357       .  S
C1099      C1100   1.411   1_556  A
C1099      C1104   1.402       .  A
C1099      F1106   1.358       .  S
C1100      C1101   1.414       .  A
C1101      C1102   1.409       .  A
C1101      F1108   1.357       .  S
C1102      C1103   1.407       .  A
C1102      F1107   1.357       .  S
C1103      C1104   1.409   1_554  A
C1104      F1105   1.359       .  S
C1109      C1110   1.401       .  A
C1109      C1114   1.403       .  A
C1109      F1116   1.357       .  S
C1110      C1111   1.403   1_554  A
C1111      C1112   1.399       .  A
C1111      F1118   1.359       .  S
C1112      C1113   1.410   1_556  A
C1112      F1117   1.358       .  S
C1113      C1114   1.412       .  A
C1114      F1115   1.358       .  S
C1119      C1124   1.395       .  A
C1119      F1126   1.358       .  S
C1120      C1121   1.406       .  A
C1121      F1128   1.359       .  S
C1122      C1123   1.404       .  A
C1122      F1127   1.358       .  S
C1123      C1124   1.406       .  A
C1124      F1125   1.359       .  S
C1129      C1130   1.412       .  A
C1129      C1134   1.401       .  A
C1129      F1136   1.358       .  S
C1130      C1131   1.413       .  A
C1131      C1132   1.393       .  A
C1131      F1138   1.358       .  S
C1132      C1133   1.404       .  A
C1132      F1137   1.359       .  S
C1133      C1134   1.407       .  A
C1134      F1135   1.358       .  S
C1139      C1140   1.409       .  A
C1139      C1144   1.397       .  A
C1139      F1146   1.358       .  S
C1140      C1141   1.413       .  A
C1141      C1142   1.396       .  A
C1141      F1148   1.358       .  S
C1142      C1143   1.401       .  A
C1142      F1147   1.358       .  S
C1143      C1144   1.404       .  A
C1144      F1145   1.358       .  S
C1149      C1150   1.398       .  A
C1149      C1154   1.398       .  A
C1149      F1156   1.357       .  S
C1150      C1151   1.404       .  A
C1151      C1152   1.403       .  A
C1151      F1158   1.358       .  S
C1152      C1153   1.411       .  A
C1152      F1157   1.358       .  S
C1153      C1154   1.415       .  A
C1154      F1155   1.358       .  S
C1159      C1160   1.411       .  A
C1159      F1166   1.357       .  S
C1160      C1161   1.410       .  A
C1161      F1168   1.358       .  S
C1162      C1163   1.413       .  A
C1162      F1167   1.358       .  S
C1163      C1164   1.414       .  A
C1164      F1165   1.357       .  S
C1169      C1170   1.415       .  A
C1169      C1174   1.398       .  A
C1169      F1176   1.358       .  S
C1170      C1171   1.410       .  A
C1171      C1172   1.401       .  A
C1171      F1178   1.358       .  S
C1172      C1173   1.404       .  A
C1172      F1177   1.358       .  S
C1173      C1174   1.398       .  A
C1174      F1175   1.357       .  S
C1179      C1180   1.413       .  A
C1179      C1184   1.397       .  A
C1179      F1186   1.358       .  S
C1180      C1181   1.412       .  A
C1181      C1182   1.399       .  A
C1181      F1188   1.358       .  S
C1182      C1183   1.404       .  A
C1182      F1187   1.357       .  S
C1183      C1184   1.403       .  A
C1184      F1185   1.358       .  S
C1189      C1190   1.413       .  A
C1189      F1196   1.358       .  S
C1190      C1191   1.414       .  A
C1191      F1198   1.357       .  S
C1192      C1193   1.416       .  A
C1192      F1197   1.357       .  S
C1193      C1194   1.412       .  A
C1194      F1195   1.358       .  S
C1199      C1200   1.397       .  A
C1199      C1204   1.395       .  A
C1199      F1206   1.358       .  S
C1200      C1201   1.405       .  A
C1201      C1202   1.403       .  A
C1201      F1208   1.358       .  S
C1202      C1203   1.411       .  A
C1202      F1207   1.358       .  S
C1203      C1204   1.418       .  A
C1204      F1205   1.358       .  S
C1209      C1210   1.410       .  A
C1209      C1214   1.401       .  A
C1209      F1216   1.358       .  S
C1210      C1211   1.416       .  A
C1211      C1212   1.396       .  A
C1211      F1218   1.359       .  S
C1212      C1213   1.397       .  A
C1212      F1217   1.357       .  S
C1213      C1214   1.404       .  A
C1214      F1215   1.358       .  S
C1219      C1220   1.402       .  A
C1219      C1224   1.393       .  A
C1219      F1226   1.358       .  S
C1220      C1221   1.406       .  A
C1221      C1222   1.401       .  A
C1221      F1228   1.358       .  S
C1222      C1223   1.411       .  A
C1222      F1227   1.358       .  S
C1223      C1224   1.413       .  A
C1224      F1225   1.358       .  S
C1229      C1230   1.404       .  A
C1229      C1234   1.398       .  A
C1229      F1236   1.358       .  S
C1230      C1231   1.407       .  A
C1231      C1232   1.398       .  A
C1231      F1238   1.358       .  S
C1232      C1233   1.404       .  A
C1232      F1237   1.358       .  S
C1233      C1234   1.407       .  A
C1234      F1235   1.358       .  S
C1239      C1240   1.404       .  A
C1239      C1244   1.397       .  A
C1239      F1246   1.357       .  S
C1240      C1241   1.401       .  A
C1241      C1242   1.394       .  A
C1241      F1248   1.358       .  S
C1242      C1243   1.413       .  A
C1242      F1247   1.358       .  S
C1243      C1244   1.410       .  A
C1244      F1245   1.358       .  S
