geometry optimzed in LAMMPS
_audit_creation_date              2020-11-30 
_audit_creation_method            'lammps2cif' 
_symmetry_space_group_name_H-M    'P1' 
_symmetry_Int_Tables_number       1 
_symmetry_cell_setting            triclinic 
loop_ 
_symmetry_equiv_pos_as_xyz 
  x,y,z 
_cell_length_a                    51.36046801937518 
_cell_length_b                    51.907622009920814 
_cell_length_c                    46.25937893704599 
_cell_angle_alpha                 90.0653409712217 
_cell_angle_beta                  89.79038843530729 
_cell_angle_gamma                 89.87831424336916 
loop_ 
_atom_site_label 
_atom_site_type_symbol 
_atom_site_fract_x 
_atom_site_fract_y 
_atom_site_fract_z 
_atom_site_charge 
Zr1        Zr  0.15151171  0.77654639  0.13803221     2.17510
O2          O  0.17824052  0.80467083  0.10798449    -0.51260
O3          O  0.14311605  0.74853439  0.09645184    -0.74470
O4          O  0.19731143  0.76435476  0.13884835    -0.81250
O5          O  0.08594101  0.81508650  0.12500684    -0.82990
O6          O  0.20720395  0.74021556  0.17871837    -0.78620
O7          O  0.12775083  0.81185749  0.10924736    -0.90260
O8          O  0.14289987  0.71130847  0.12004299    -0.76220
O9          O  0.15497593  0.73453083  0.16081916    -0.85710
O10         O  0.10943081  0.75810426  0.13810148    -0.85400
O11         O  0.16750624  0.78016738  0.18774231    -0.72150
O12         O  0.12707071  0.80506781  0.16750544    -0.84290
Zr13       Zr  0.10106725  0.75139699  0.23686624     2.26420
Zr14       Zr  0.16906169  0.73786117  0.21056132     2.06270
Zr15       Zr  0.08456577  0.78714883  0.16589762     2.10050
Zr16       Zr  0.11274981  0.71648755  0.15951179     1.78760
O17         O  0.08173660  0.83154030  0.18309576    -0.93090
O18         O  0.13158737  0.67373103  0.16584781    -0.40900
O19         O  0.08705325  0.74530717  0.18766834    -0.77530
O20         O  0.12604157  0.72127313  0.20832516    -0.96220
O21         O  0.14429357  0.76751600  0.23923768    -0.89520
O22         O  0.09813048  0.79287520  0.21491105    -0.92370
C23         C  0.13991549  0.72407233  0.09689895     1.01380
C24         C  0.10430571  0.82195582  0.10812479     1.14320
C25         C  0.21314138  0.75141267  0.15473462     1.05100
O26         O  0.19666561  0.69969078  0.21120115    -0.94520
O27         O  0.15735359  0.70540588  0.24988686    -0.90270
O28         O  0.11860437  0.71859206  0.26868988    -0.83410
C29         C  0.13782193  0.70286705  0.26782796     1.11740
O30         O  0.17640255  0.83701816  0.19916752    -0.96500
Zr31       Zr  0.14173686  0.80893363  0.21683592     1.88940
O32         O  0.09277536  0.78700822  0.27186084    -0.73140
O33         O  0.19804494  0.75733237  0.24583705    -0.52410
O34         O  0.17452584  0.81006251  0.25472734    -0.97090
O35         O  0.12953222  0.85423250  0.21185253    -0.54300
O36         O  0.11691511  0.82164932  0.25963772    -0.73660
C37         C  0.09976902  0.81076618  0.27573227     0.98680
O38         O  0.08159999  0.72325712  0.27291221    -0.62480
O39         O  0.05172762  0.78504215  0.12775854    -0.58400
O40         O  0.05734419  0.74585463  0.21888588    -0.93970
O41         O  0.04406632  0.77115190  0.18407807    -0.92390
O42         O  0.08017984  0.70950304  0.12221216    -0.92750
O43         O  0.07933757  0.68544905  0.17339778    -0.91530
C44         C  0.04382121  0.76502269  0.21048776     1.17530
H45         H  0.10153222  0.75727974  0.11940619     0.33470
H46         H  0.12425173  0.70400915  0.21556205     0.44320
H47         H  0.08536110  0.80376049  0.22412910     0.37850
H48         H  0.18492314  0.78713137  0.18731592     0.34330
H49         H  0.12995022  0.66536599  0.14669056     0.26110
H50         H  0.20661657  0.74251804  0.25536761     0.32050
H51         H  0.17034544  0.82568070  0.26616006     0.37960
H52         H  0.08495642  0.69275594  0.11337235     0.32420
H53         H  0.05034019  0.76649243  0.12298903     0.31300
H54         H  0.09518092  0.84107532  0.17220506     0.32980
H55         H  0.14052152  0.86364717  0.22583641     0.31950
H56         H  0.08146425  0.67043974  0.16036721     0.35950
H57         H  0.07084153  0.73435614  0.28541008     0.28680
H58         H  0.18852330  0.79315239  0.09522062     0.32910
H59         H  0.18430301  0.84499572  0.21647852     0.35760
H60         H  0.03462716  0.78956713  0.13624538     0.28370
H61         H  0.06935365  0.71210875  0.26217363     0.41240
H62         H  0.18950904  0.68842819  0.19590642     0.31300
H63         H  0.15048290  0.67682949  0.16802615     0.38920
H64         H  0.11173587  0.85570460  0.21997530     0.30770
H65         H  0.21198424  0.76538017  0.23410635     0.30830
H66         H  0.19103982  0.81250643  0.12126235     0.31100
Zr67       Zr  0.88394784  0.80039711  0.13942916     2.17510
O68         O  0.86585620  0.78092236  0.09584665    -0.51260
O69         O  0.89272398  0.83992430  0.11179883    -0.74470
O70         O  0.83716164  0.80760588  0.13367756    -0.81250
O71         O  0.94907255  0.76221494  0.13088648    -0.82990
O72         O  0.81924766  0.82320432  0.17550923    -0.78620
O73         O  0.91167153  0.77187935  0.10703825    -0.90260
O74         O  0.89083985  0.87164653  0.14475148    -0.76220
O75         O  0.87459891  0.83646040  0.17061360    -0.85710
O76         O  0.92510273  0.81857140  0.15139926    -0.85400
O77         O  0.86007642  0.78566592  0.18184049    -0.72150
O78         O  0.90614485  0.76657737  0.16452830    -0.84290
Zr79       Zr  0.91359743  0.80100325  0.24920771     2.26420
Zr80       Zr  0.85236693  0.82253312  0.21380568     2.06270
Zr81       Zr  0.94723307  0.78542991  0.17714664     2.10050
Zr82       Zr  0.91567228  0.85362768  0.18319354     1.78760
O83         O  0.97824243  0.75008242  0.17872487    -0.93090
O84         O  0.89446443  0.89132487  0.20479154    -0.40900
O85         O  0.93646221  0.81961147  0.20842966    -0.77530
O86         O  0.89514882  0.83768929  0.22535892    -0.96220
O87         O  0.87170074  0.78581276  0.23758037    -0.89520
O88         O  0.92421836  0.76697814  0.21644348    -0.92370
C89         C  0.89261043  0.86397002  0.11878680     1.01380
C90         C  0.93429246  0.76050132  0.10855490     1.14320
C91         C  0.81789851  0.81606212  0.14882963     1.05100
O92         O  0.82315046  0.85951098  0.21506358    -0.94520
O93         O  0.85908035  0.85074853  0.25805574    -0.90270
O94         O  0.88335455  0.82272743  0.28251935    -0.83410
C95         C  0.87328406  0.84531400  0.28040277     1.11740
O96         O  0.85118239  0.72685893  0.17624805    -0.96500
Zr97       Zr  0.88215839  0.75076744  0.20566913     1.88940
O98         O  0.92267316  0.75850874  0.27180940    -0.73140
O99         O  0.81973896  0.79953960  0.24191130    -0.52410
O100        O  0.84638687  0.73975930  0.23808832    -0.97090
O101        O  0.89747966  0.70999646  0.18567462    -0.54300
O102        O  0.90278820  0.72742132  0.24562718    -0.73660
C103        C  0.91730021  0.73467770  0.26666676     0.98680
O104        O  0.93272248  0.80036846  0.29697856    -0.62480
O105        O  0.98253524  0.80702918  0.15180922    -0.57280
O106        O  0.95403649  0.82128690  0.25278348    -0.93970
O107        O  0.97458586  0.79560546  0.22026243    -0.92390
O108        O  0.95053171  0.86861818  0.15134807    -0.92750
O109        O  0.94691444  0.88052886  0.20881800    -0.91530
C110        C  0.97409857  0.80995240  0.24344227     1.17530
H111        H  0.93463294  0.82370560  0.13432661     0.33470
H112        H  0.89804278  0.85267037  0.23715207     0.44320
H113        H  0.93642567  0.75427795  0.22316180     0.37850
H114        H  0.84351907  0.77860831  0.17611106     0.34330
H115        H  0.90543028  0.90641931  0.20027487     0.26110
H116        H  0.80645270  0.81275372  0.24662583     0.32050
H117        H  0.85000098  0.72185024  0.24425904     0.37960
H118        H  0.96691179  0.86744554  0.16245496     0.32420
H119        H  0.98013212  0.82546736  0.15636389     0.31300
H120        H  0.99373984  0.75652353  0.16822621     0.32980
H121        H  0.89285434  0.69686468  0.20032021     0.31950
H122        H  0.94755626  0.87321687  0.22856221     0.35950
H123        H  0.93358326  0.81854980  0.30280869     0.28680
H124        H  0.85719425  0.79505825  0.08518953     0.32910
H125        H  0.84417706  0.71318550  0.18897557     0.35760
H126        H  0.97839354  0.80553987  0.13099795     0.28370
H127        H  0.91951270  0.79253830  0.30982087     0.41240
H128        H  0.83249046  0.87305069  0.20412659     0.31300
H129        H  0.87834136  0.89402496  0.19352808     0.38920
H130        H  0.91670494  0.71115643  0.18656490     0.30770
H131        H  0.81113025  0.78812760  0.22770397     0.30830
H132        H  0.85159092  0.76953318  0.10248604     0.31100
Zr133      Zr  0.02338208  0.64782566  0.48430849     2.17510
O134        O  0.99228503  0.62796348  0.51735891    -0.51260
O135        O  0.05544560  0.66106894  0.01990506    -0.74470
O136        O  0.03774072  0.60374864  0.49486913    -0.81250
O137        O  0.98814732  0.71343944  0.48861276    -0.82990
O138        O  0.06063029  0.58696484  0.45663944    -0.78620
O139        O  0.99605576  0.67789718  0.01560090    -0.90260
O140        O  0.09092995  0.66189988  0.49195738    -0.76220
O141        O  0.06497891  0.64291445  0.46027057    -0.85710
O142        O  0.03744451  0.69029562  0.47276555    -0.85400
O143        O  0.01918856  0.62158130  0.44076888    -0.72150
O144        O  0.99048750  0.66345527  0.45194907    -0.84290
Zr145      Zr  0.03974614  0.67349706  0.37220893     2.26420
Zr146      Zr  0.06124997  0.61796053  0.41640272     2.06270
Zr147      Zr  0.00570504  0.70578830  0.43992320     2.10050
Zr148      Zr  0.07838653  0.68530901  0.44920163     1.78760
O149        O  0.96254412  0.72302844  0.43003560    -0.93090
O150        O  0.12437937  0.67420957  0.44575524    -0.40900
O151        O  0.04677187  0.70060483  0.41564557    -0.77530
O152        O  0.07360095  0.66142358  0.40555056    -0.96220
O153        O  0.02696001  0.63105838  0.38428759    -0.89520
O154        O  0.99839413  0.67956672  0.39822513    -0.92370
C155        C  0.07981598  0.66515618  0.01624961     1.01380
C156        C  0.98639761  0.70103172  0.01258069     1.14320
C157        C  0.05045263  0.58545961  0.48216686     1.05100
O158        O  0.10236352  0.59533532  0.42282479    -0.94520
O159        O  0.09223397  0.62611192  0.37437962    -0.90270
O160        O  0.06384406  0.64285101  0.34330124    -0.83410
C161        C  0.08720281  0.63665986  0.34955243     1.11740
O162        O  0.96381241  0.60191953  0.43415922    -0.96500
Zr163      Zr  0.98590107  0.63696913  0.40884390     1.88940
O164        O  0.00131522  0.67271161  0.34041246    -0.73140
O165        O  0.04598084  0.58110955  0.38872914    -0.52410
O166        O  0.98239037  0.59973292  0.37697455    -0.97090
O167        O  0.94133938  0.64949757  0.42062171    -0.54300
O168        O  0.96760592  0.65287109  0.36281965    -0.73660
C169        C  0.97708043  0.66621379  0.34175415     0.98680
O170        O  0.07154361  0.69736530  0.34330348    -0.62480
O171        O  0.01612930  0.75127429  0.44480844    -0.57280
O172        O  0.03463892  0.71343580  0.34768842    -0.93970
O173        O  0.02217286  0.70879642  0.39164916    -0.92390
O174        O  0.08131754  0.72378384  0.47923059    -0.92750
O175        O  0.10671954  0.71718591  0.42687819    -0.91530
C176        C  0.02452662  0.72322160  0.36984816     1.17530
H177        H  0.03858836  0.70122351  0.48955881     0.33470
H178        H  0.09036576  0.66416195  0.39674268     0.44320
H179        H  0.98398804  0.68790613  0.38858171     0.37850
H180        H  0.01372920  0.60450978  0.44633803     0.34330
H181        H  0.13227714  0.68111934  0.46365245     0.26110
H182        H  0.06126367  0.56949723  0.38751442     0.32050
H183        H  0.96488945  0.60114721  0.36819958     0.37960
H184        H  0.09842670  0.72228549  0.48889125     0.32420
H185        H  0.00145250  0.75883875  0.45585585     0.31300
H186        H  0.95946059  0.73614303  0.44522494     0.32980
H187        H  0.93019082  0.63589729  0.41223321     0.31950
H188        H  0.10867671  0.71130655  0.40661268     0.35950
H189        H  0.08833178  0.69521035  0.35344340     0.28680
H190        H  0.00193853  0.61504217  0.02878443     0.32910
H191        H  0.95065253  0.59505497  0.42061668     0.35760
H192        H  0.03109331  0.75171167  0.45822069     0.28370
H193        H  0.07360903  0.68807705  0.32472646     0.41240
H194        H  0.11328125  0.60751843  0.43391177     0.31300
H195        H  0.12498594  0.65526401  0.44814834     0.38920
H196        H  0.93968681  0.64726174  0.44180299     0.30770
H197        H  0.03374649  0.57219178  0.40192097     0.30830
H198        H  0.98051012  0.61796255  0.50475525     0.31100
Zr199      Zr  0.99576733  0.92515447  0.49206885     2.17510
O200        O  0.01757163  0.94974602  0.52985835    -0.51260
O201        O  0.96050535  0.91804712  0.02779928    -0.74470
O202        O  0.98586354  0.97093519  0.49014187    -0.81250
O203        O  0.02754544  0.85896033  0.01089831    -0.82990
O204        O  0.96249116  0.98156565  0.44977424    -0.78620
O205        O  0.03203100  0.90120267  0.02062430    -0.90260
O206        O  0.92562586  0.91870972  0.99948808    -0.76220
O207        O  0.95507948  0.92872605  0.46606655    -0.85710
O208        O  0.97723231  0.88349579  0.49067086    -0.85400
O209        O  0.00227440  0.94208903  0.44282385    -0.72150
O210        O  0.02795520  0.90301027  0.46424289    -0.84290
Zr211      Zr  0.97782993  0.87810898  0.39213766     2.26420
Zr212      Zr  0.96067208  0.94417698  0.41700483     2.06270
Zr213      Zr  0.00939463  0.86116449  0.46389407     2.10050
Zr214      Zr  0.93705828  0.88690850  0.46461939     1.78760
O215        O  0.05602986  0.86046964  0.45565359    -0.93090
O216        O  0.89722361  0.90519234  0.44377185    -0.40900
O217        O  0.96891287  0.86230521  0.43950519    -0.77530
O218        O  0.94450112  0.90101281  0.41677761    -0.96220
O219        O  0.99336859  0.92100258  0.39081119    -0.89520
O220        O  0.01794580  0.87585854  0.41665540    -0.92370
C221        C  0.93560882  0.91724820  0.02433747     1.01380
C222        C  0.03879848  0.87696589  0.02449838     1.14320
C223        C  0.97342701  0.98699862  0.47414011     1.05100
O224        O  0.91964013  0.96770078  0.41788702    -0.94520
O225        O  0.93207247  0.93024885  0.37398795    -0.90270
O226        O  0.96077807  0.90412129  0.35328883    -0.83410
C227        C  0.93779578  0.91328603  0.35410109     1.11740
O228        O  0.06288462  0.95191498  0.43291491    -0.96500
Zr229      Zr  0.03403919  0.91826818  0.41499638     1.88940
O230        O  0.01131257  0.87176482  0.35531961    -0.73140
O231        O  0.97850964  0.97566851  0.38346326    -0.52410
O232        O  0.03641103  0.95123909  0.37770107    -0.97090
O233        O  0.07962597  0.90624216  0.42100419    -0.54300
O234        O  0.04734408  0.89171926  0.37240995    -0.73660
C235        C  0.03592839  0.87631848  0.35441910     0.98680
O236        O  0.94208032  0.84865727  0.38201258    -0.62480
O237        O  0.00252318  0.81912903  0.48603360    -0.57280
O238        O  0.99053185  0.83482901  0.39181558    -0.93970
O239        O  0.00804826  0.82383754  0.43534900    -0.92390
O240        O  0.92685258  0.85674870  0.50339270    -0.92750
O241        O  0.90693923  0.85135036  0.45679065    -0.91530
C242        C  0.00095067  0.81938644  0.40961005     1.17530
H243        H  0.97523158  0.87583210  0.50957229     0.33470
H244        H  0.92827744  0.89838405  0.40691458     0.44320
H245        H  0.02979873  0.86367706  0.40797543     0.37850
H246        H  0.00916585  0.95932929  0.44412569     0.34330
H247        H  0.88370421  0.89166839  0.44342646     0.26110
H248        H  0.96421743  0.98823559  0.38063914     0.32050
H249        H  0.05369194  0.94864781  0.36858726     0.37960
H250        H  0.94015721  0.84297769  0.50173633     0.32420
H251        H  0.01992498  0.81333087  0.49245151     0.31300
H252        H  0.05889361  0.84524598  0.44324167     0.32980
H253        H  0.08876654  0.91450124  0.40457016     0.31950
H254        H  0.90997349  0.84597807  0.43652722     0.35950
H255        H  0.94265742  0.83575362  0.39765958     0.28680
H256        H  0.00364296  0.95918830  0.04029674     0.32910
H257        H  0.05394963  0.96837472  0.42859440     0.35760
H258        H  0.99267662  0.82255642  0.50408317     0.28370
H259        H  0.92607105  0.85848595  0.38654376     0.41240
H260        H  0.91045963  0.96110943  0.43521091     0.31300
H261        H  0.89088180  0.91846866  0.45746355     0.38920
H262        H  0.08041319  0.88761331  0.41649924     0.30770
H263        H  0.99164879  0.98514332  0.39490007     0.30830
H264        H  0.02778113  0.96315462  0.51971341     0.31100
Zr265      Zr  0.65261826  0.78944314  0.11865088     2.17510
O266        O  0.67932583  0.76556999  0.15295459    -0.51260
O267        O  0.64375166  0.82070579  0.15758728    -0.74470
O268        O  0.69849795  0.80071902  0.11539601    -0.81250
O269        O  0.58840909  0.77029991  0.14592767    -0.82990
O270        O  0.70865824  0.82005944  0.07240618    -0.78620
O271        O  0.62932417  0.75648635  0.15055366    -0.90260
O272        O  0.64457650  0.85417085  0.12826873    -0.76220
O273        O  0.65635686  0.82898370  0.09071742    -0.85710
O274        O  0.61105380  0.80936254  0.11715608    -0.85400
O275        O  0.66760556  0.78054077  0.06919234    -0.72150
O276        O  0.62751260  0.75751325  0.09398215    -0.84290
Zr277      Zr  0.60022303  0.80473245  0.02007593     2.26420
Zr278      Zr  0.66965586  0.82057842  0.04135261     2.06270
Zr279      Zr  0.58547576  0.77697631  0.09541478     2.10050
Zr280      Zr  0.61462171  0.84826888  0.08933178     1.78760
O281        O  0.58758585  0.73021690  0.09363325    -0.93090
O282        O  0.63240978  0.88601279  0.06448366    -0.40900
O283        O  0.58709020  0.81657032  0.06836011    -0.77530
O284        O  0.62652421  0.83809809  0.04125591    -0.96220
O285        O  0.64345023  0.78844158  0.01773157    -0.89520
O286        O  0.59801926  0.76575138  0.04705319    -0.92370
C287        C  0.64005041  0.84471248  0.15291702     1.01380
C288        C  0.60491517  0.75587776  0.15827194     1.14320
C289        C  0.71456401  0.81146029  0.09777446     1.05100
O290        O  0.69477286  0.86021185  0.03870828    -0.94520
O291        O  0.65934176  0.84875498  0.99753955    -0.90270
O292        O  0.61895673  0.83496009  0.48637029    -0.83410
C293        C  0.63861065  0.84949027  0.48137785     1.11740
O294        O  0.67477404  0.72103504  0.06399910    -0.96500
Zr295      Zr  0.64106783  0.74922077  0.04452764     1.88940
O296        O  0.59073422  0.76738266  0.48864319    -0.73140
O297        O  0.69937923  0.79903672  0.00808206    -0.52410
O298        O  0.67402660  0.74485130  0.00684036    -0.97090
O299        O  0.62724918  0.70498872  0.05349811    -0.54300
O300        O  0.61509643  0.73360615  0.00318687    -0.73660
C301        C  0.59763562  0.74349579  0.48657632     0.98680
O302        O  0.56996092  0.82101092  0.98451711    -0.62480
O303        O  0.54776027  0.77190465  0.12744669    -0.57280
O304        O  0.56069783  0.81238111  0.04659594    -0.93970
O305        O  0.54369528  0.78305644  0.07435184    -0.92390
O306        O  0.59766699  0.88706552  0.11263545    -0.92750
O307        O  0.56875426  0.86024679  0.09097392    -0.91530
C308        C  0.54434112  0.79436347  0.05030946     1.17530
H309        H  0.60432177  0.81188256  0.13621705     0.33470
H310        H  0.62420885  0.85416434  0.03136141     0.44320
H311        H  0.58543391  0.75372885  0.03976799     0.37850
H312        H  0.68492258  0.77330655  0.07010506     0.34330
H313        H  0.61744681  0.89775860  0.06149801     0.26110
H314        H  0.71076450  0.81297598  0.00078512     0.32050
H315        H  0.66891292  0.72926923  0.99590280     0.37960
H316        H  0.61308128  0.89623590  0.12023956     0.32420
H317        H  0.53743459  0.78802737  0.12657654     0.31300
H318        H  0.58008099  0.72444401  0.11227157     0.32980
H319        H  0.63479284  0.69480666  0.03739389     0.31950
H320        H  0.56466717  0.86589058  0.07104583     0.35950
H321        H  0.57086267  0.83997884  0.98637014     0.28680
H322        H  0.69036995  0.77842795  0.16287221     0.32910
H323        H  0.68087296  0.71034716  0.04756887     0.35760
H324        H  0.53661443  0.75824452  0.11912844     0.28370
H325        H  0.57761842  0.81698717  0.96550646     0.41240
H326        H  0.68597194  0.87202696  0.05244485     0.31300
H327        H  0.64345399  0.89475725  0.07897309     0.38920
H328        H  0.60828552  0.70487588  0.04974458     0.30770
H329        H  0.71081935  0.78857185  0.02065565     0.30830
H330        H  0.69141573  0.75514878  0.14103666     0.31100
Zr331      Zr  0.38182997  0.77214076  0.11157998     2.17510
O332        O  0.36190446  0.79770084  0.15005899    -0.51260
O333        O  0.39643603  0.74034246  0.14702462    -0.74470
O334        O  0.33611566  0.76123250  0.11994373    -0.81250
O335        O  0.44644155  0.81198540  0.11447219    -0.82990
O336        O  0.31893974  0.74088667  0.08052738    -0.78620
O337        O  0.40958551  0.80317067  0.13987736    -0.90260
O338        O  0.39586647  0.70398021  0.12079195    -0.76220
O339        O  0.37421839  0.73214200  0.08620731    -0.85710
O340        O  0.42353766  0.75459269  0.10094027    -0.85400
O341        O  0.35685628  0.78042059  0.06794075    -0.72150
O342        O  0.40185772  0.80392509  0.08141786    -0.84290
Zr343      Zr  0.41153831  0.75843551  0.00302538     2.26420
Zr344      Zr  0.35111578  0.74000680  0.04160654     2.06270
Zr345      Zr  0.44380292  0.78544493  0.07095484     2.10050
Zr346      Zr  0.41611501  0.71542819  0.07573040     1.78760
O347        O  0.47399387  0.82148209  0.06880453    -0.93090
O348        O  0.39739524  0.67309600  0.06673191    -0.40900
O349        O  0.43644187  0.74653150  0.04522098    -0.77530
O350        O  0.39380058  0.72424401  0.03204697    -0.96220
O351        O  0.36897921  0.77376377  0.01205460    -0.89520
O352        O  0.41946653  0.79683705  0.02987447    -0.92370
C353        C  0.39967172  0.71596462  0.14438604     1.01380
C354        C  0.43197726  0.81465830  0.13700900     1.14320
C355        C  0.31738064  0.75023435  0.10625531     1.05100
O356        O  0.32340309  0.70212947  0.04489377    -0.94520
O357        O  0.35536063  0.70932897  0.99889349    -0.90270
O358        O  0.39011609  0.72532630  0.47473872    -0.83410
C359        C  0.37172747  0.70881990  0.47734393     1.11740
O360        O  0.34326356  0.83790599  0.06298403    -0.96500
Zr361      Zr  0.37696571  0.81283802  0.03846160     1.88940
O362        O  0.41720392  0.79776455  0.47313129    -0.73140
O363        O  0.31703750  0.76079426  0.01357286    -0.52410
O364        O  0.34201536  0.81898870  0.00366931    -0.97090
O365        O  0.38966808  0.85611814  0.05313854    -0.54300
O366        O  0.39835304  0.83170715  0.99614256    -0.73660
C367        C  0.41248594  0.82210731  0.47582171     0.98680
O368        O  0.42999414  0.75275659  0.95507903    -0.62480
O369        O  0.47910583  0.76113652  0.09309064    -0.57280
O370        O  0.45508763  0.74601076  0.00437790    -0.93970
O371        O  0.46965278  0.78156047  0.02662848    -0.92390
O372        O  0.45502283  0.70543577  0.10346679    -0.92750
O373        O  0.44606787  0.68544038  0.05240834    -0.91530
C374        C  0.47161960  0.76367777  0.00733297     1.17530
H375        H  0.43394247  0.75223902  0.11791117     0.33470
H376        H  0.39509033  0.70758260  0.02302532     0.44320
H377        H  0.43110010  0.80909798  0.02124504     0.37850
H378        H  0.33994178  0.78714247  0.07315677     0.34330
H379        H  0.40325035  0.66237534  0.08317557     0.26110
H380        H  0.30425912  0.74694273  0.00982870     0.32050
H381        H  0.34510985  0.83629082  0.99536332     0.37960
H382        H  0.45116290  0.68871203  0.11281392     0.32420
H383        H  0.49206803  0.77428401  0.09870081     0.31300
H384        H  0.49150717  0.81354117  0.06775509     0.32980
H385        H  0.38663792  0.86705882  0.03595163     0.31950
H386        H  0.44643698  0.69093475  0.03191953     0.35950
H387        H  0.43600016  0.73464632  0.95483178     0.28680
H388        H  0.35384436  0.78523375  0.16356343     0.32910
H389        H  0.33733830  0.85085986  0.04874172     0.35760
H390        H  0.48735035  0.75172682  0.07682693     0.28370
H391        H  0.41512280  0.75344568  0.94154165     0.41240
H392        H  0.33310205  0.69007490  0.05747261     0.31300
H393        H  0.37848393  0.67544209  0.07001761     0.38920
H394        H  0.40885179  0.85526060  0.05495869     0.30770
H395        H  0.30817681  0.77237020  0.02752598     0.30830
H396        H  0.34717864  0.80690478  0.14097469     0.31100
Zr397      Zr  0.50426321  0.63902039  0.26750602     2.17510
O398        O  0.53775586  0.61456414  0.24193917    -0.51260
O399        O  0.47666660  0.64742263  0.22599756    -0.74470
O400        O  0.48868772  0.59538127  0.26125210    -0.81250
O401        O  0.54152617  0.70378226  0.26045593    -0.82990
O402        O  0.46174599  0.58301424  0.29836970    -0.78620
O403        O  0.53482657  0.66641246  0.23614838    -0.90260
O404        O  0.43935847  0.64913630  0.24998438    -0.76220
O405        O  0.46058230  0.63614359  0.28736089    -0.85710
O406        O  0.48838651  0.68190952  0.27062054    -0.85400
O407        O  0.50367257  0.61777719  0.31487297    -0.72150
O408        O  0.53390744  0.65793522  0.30109416    -0.84290
Zr409      Zr  0.47789689  0.67873418  0.36705116     2.26420
Zr410      Zr  0.45944058  0.61710577  0.33525494     2.06270
Zr411      Zr  0.51739037  0.70103779  0.30410890     2.10050
Zr412      Zr  0.44508576  0.67891503  0.28920311     1.78760
O413        O  0.56085341  0.71918095  0.30875845    -0.93090
O414        O  0.40001851  0.66493274  0.29447821    -0.40900
O415        O  0.47446347  0.69991128  0.32155893    -0.77530
O416        O  0.44524444  0.66058852  0.33654146    -0.96220
O417        O  0.49098460  0.63519422  0.36665246    -0.89520
O418        O  0.52075284  0.67964215  0.34828387    -0.92370
C419        C  0.45217480  0.65185436  0.22670181     1.01380
C420        C  0.54481278  0.68952659  0.23832839     1.14320
C421        C  0.47405201  0.57903958  0.27436771     1.05100
O422        O  0.41867290  0.59371003  0.33024310    -0.94520
O423        O  0.42748816  0.63168647  0.37592947    -0.90270
O424        O  0.44996305  0.66013387  0.40302537    -0.83410
C425        C  0.42894668  0.64808743  0.39756420     1.11740
O426        O  0.56042859  0.60113308  0.32904032    -0.96500
Zr427      Zr  0.53425390  0.63672113  0.34776638     1.88940
O428        O  0.50963241  0.68228263  0.40665798    -0.73140
O429        O  0.47306920  0.58302861  0.36800141    -0.52410
O430        O  0.53364514  0.60249348  0.38371549    -0.97090
O431        O  0.58013409  0.64794082  0.34339090    -0.54300
O432        O  0.54556869  0.65975244  0.39332263    -0.73660
C433        C  0.53376758  0.67592874  0.41025643     0.98680
O434        O  0.44870418  0.71203070  0.34727581    -0.62480
O435        O  0.50048021  0.74237293  0.28788781    -0.57280
O436        O  0.49127874  0.71822988  0.38366432    -0.93970
O437        O  0.51556627  0.72988528  0.34457040    -0.92390
O438        O  0.44171903  0.71060628  0.25054821    -0.92750
O439        O  0.41633475  0.71597474  0.29652162    -0.91530
C440        C  0.50658052  0.73303159  0.37022062     1.17530
H441        H  0.48895006  0.69070010  0.25224305     0.33470
H442        H  0.42777893  0.66363762  0.34344396     0.44320
H443        H  0.53313255  0.68981559  0.35882512     0.37850
H444        H  0.50931345  0.60016223  0.31232248     0.34330
H445        H  0.39204002  0.66844699  0.27542398     0.26110
H446        H  0.45731329  0.57232922  0.37070062     0.32050
H447        H  0.54925178  0.60563251  0.39570971     0.37960
H448        H  0.42480466  0.70703518  0.24115820     0.32420
H449        H  0.51510290  0.75057913  0.27742239     0.31300
H450        H  0.55820439  0.73807429  0.30803233     0.32980
H451        H  0.58795682  0.64274256  0.36202964     0.31950
H452        H  0.40319322  0.71079060  0.31108286     0.35950
H453        H  0.45166876  0.72908423  0.35622176     0.28680
H454        H  0.52861586  0.60130127  0.23044079     0.32910
H455        H  0.57223119  0.59618396  0.34498271     0.35760
H456        H  0.48748989  0.73808319  0.27290828     0.28370
H457        H  0.43042787  0.70749049  0.35156319     0.41240
H458        H  0.41060421  0.60089840  0.31259576     0.31300
H459        H  0.40105405  0.64591422  0.29551577     0.38920
H460        H  0.58036227  0.66701506  0.34380013     0.30770
H461        H  0.48494854  0.57215457  0.35627410     0.30830
H462        H  0.54700503  0.60494656  0.25724151     0.31100
Zr463      Zr  0.52887177  0.91918120  0.26415975     2.17510
O464        O  0.50014711  0.94230236  0.23126042    -0.51260
O465        O  0.56390839  0.91374335  0.22982463    -0.74470
O466        O  0.53962539  0.96466785  0.26122122    -0.81250
O467        O  0.48734131  0.85732695  0.25704047    -0.82990
O468        O  0.56074578  0.97873342  0.30192656    -0.78620
O469        O  0.50216247  0.89041547  0.23008791    -0.90260
O470        O  0.59947746  0.91128412  0.25715675    -0.76220
O471        O  0.56887683  0.92510085  0.29086301    -0.85710
O472        O  0.54723240  0.87736767  0.26921355    -0.85400
O473        O  0.52141085  0.94063411  0.31035867    -0.72150
O474        O  0.49675660  0.89690567  0.29163046    -0.84290
Zr475      Zr  0.54293209  0.88259980  0.37013067     2.26420
Zr476      Zr  0.56188655  0.94464301  0.33792016     2.06270
Zr477      Zr  0.51617564  0.85510082  0.29790320     2.10050
Zr478      Zr  0.58645952  0.88336339  0.29596922     1.78760
O479        O  0.48580382  0.81992146  0.30524860    -0.93090
O480        O  0.62973846  0.89846636  0.30916809    -0.40900
O481        O  0.55457184  0.86177477  0.32446819    -0.77530
O482        O  0.57753566  0.90192782  0.34224376    -0.96220
O483        O  0.52718788  0.92501402  0.36432134    -0.89520
O484        O  0.50396743  0.87650469  0.34144515    -0.92370
C485        C  0.58853406  0.91085777  0.23255887     1.01380
C486        C  0.48844902  0.86926992  0.23291065     1.14320
C487        C  0.55082609  0.98198156  0.27669753     1.05100
O488        O  0.60221163  0.96917940  0.33654639    -0.94520
O489        O  0.58960596  0.93371732  0.38266230    -0.90270
O490        O  0.55832684  0.91306144  0.40526364    -0.83410
C491        C  0.58214612  0.91936210  0.40417666     1.11740
O492        O  0.46295907  0.95317960  0.31373584    -0.96500
Zr493      Zr  0.48819190  0.91906385  0.33667497     1.88940
O494        O  0.50280835  0.87669218  0.40034793    -0.73140
O495        O  0.54276862  0.97799410  0.36835340    -0.52410
O496        O  0.48191337  0.95274432  0.37279023    -0.97090
O497        O  0.44463136  0.90915300  0.31961396    -0.54300
O498        O  0.46925274  0.89782608  0.37878187    -0.73660
C499        C  0.47835742  0.88305693  0.39860613     0.98680
O500        O  0.58183447  0.85607348  0.37867289    -0.62480
O501        O  0.53991252  0.82023386  0.27418351    -0.57280
O502        O  0.54142304  0.84162837  0.39060871    -0.93970
O503        O  0.53007784  0.84542251  0.34607993    -0.92390
O504        O  0.59602791  0.85097760  0.25920946    -0.92750
O505        O  0.61442702  0.84801881  0.31152936    -0.91530
C506        C  0.53331544  0.83112844  0.36791630     1.17530
H507        H  0.54991295  0.86900462  0.25076617     0.33470
H508        H  0.59426684  0.90101747  0.35143613     0.44320
H509        H  0.49031607  0.86616364  0.34963853     0.37850
H510        H  0.51451394  0.95766894  0.30706500     0.34330
H511        H  0.64108207  0.89310867  0.29287616     0.26110
H512        H  0.55690110  0.99072763  0.37091209     0.32050
H513        H  0.46423155  0.94978410  0.38069851     0.37960
H514        H  0.61307561  0.85612102  0.25101576     0.32420
H515        H  0.54196448  0.80685599  0.28925097     0.31300
H516        H  0.49687485  0.80469204  0.30918113     0.32980
H517        H  0.43311412  0.91252294  0.33640020     0.31950
H518        H  0.62112064  0.85314250  0.33072726     0.35950
H519        H  0.58395124  0.84506870  0.36142838     0.28680
H520        H  0.51176997  0.95095952  0.21719331     0.32910
H521        H  0.45103443  0.95996884  0.32879938     0.35760
H522        H  0.52747748  0.81278119  0.26020814     0.28370
H523        H  0.59730429  0.86725441  0.37752867     0.41240
H524        H  0.61138587  0.96291153  0.31903040     0.31300
H525        H  0.62872598  0.91745743  0.30756757     0.38920
H526        H  0.44464404  0.89021576  0.31710253     0.30770
H527        H  0.53001520  0.98675116  0.35569575     0.30830
H528        H  0.49235968  0.95640276  0.24286904     0.31100
Zr529      Zr  0.65147610  0.26811474  0.38484806     2.17510
O530        O  0.68094189  0.29565468  0.35733025    -0.51260
O531        O  0.64496488  0.23940955  0.34320041    -0.74470
O532        O  0.69688807  0.25490126  0.38850471    -0.81250
O533        O  0.58764281  0.30691750  0.36775902    -0.82990
O534        O  0.70506361  0.23426077  0.43127844    -0.78620
O535        O  0.63042122  0.30433574  0.35550238    -0.90260
O536        O  0.64309103  0.20184440  0.36652791    -0.76220
O537        O  0.65486442  0.22630312  0.40842453    -0.85710
O538        O  0.60950296  0.24936057  0.38109628    -0.85400
O539        O  0.66369591  0.27268681  0.43565387    -0.72150
O540        O  0.62462565  0.29754237  0.41119899    -0.84290
Zr541      Zr  0.59583938  0.24441055  0.48022572     2.26420
Zr542      Zr  0.66496185  0.23083240  0.45937440     2.06270
Zr543      Zr  0.58300962  0.27826116  0.40713497     2.10050
Zr544      Zr  0.61273543  0.20902337  0.40560735     1.78760
O545        O  0.57113881  0.32263155  0.41855972    -0.93090
O546        O  0.62900114  0.16582362  0.41547769    -0.40900
O547        O  0.60914247  0.24825026  0.43134402    -0.77530
O548        O  0.62218890  0.21245064  0.45578976    -0.96220
O549        O  0.63844446  0.26072610  0.48665310    -0.89520
O550        O  0.59139443  0.28533066  0.45732820    -0.92370
C551        C  0.64153274  0.21490955  0.34333528     1.01380
C552        C  0.60712736  0.31441477  0.35301391     1.14320
C553        C  0.71193111  0.24342911  0.40656744     1.05100
O554        O  0.68923417  0.19052123  0.45794779    -0.94520
O555        O  0.65481671  0.20137457  0.50111226    -0.90270
O556        O  0.61545088  0.21652575  0.01496965    -0.83410
C557        C  0.63492165  0.20139882  0.01833278     1.11740
O558        O  0.66912119  0.33119807  0.44579963    -0.96500
Zr559      Zr  0.63550811  0.30130456  0.46194681     1.88940
O560        O  0.58677650  0.27862128  0.01682987    -0.73140
O561        O  0.69466625  0.24894867  0.49483590    -0.52410
O562        O  0.66690723  0.30075737  0.50123989    -0.97090
O563        O  0.62826050  0.34779935  0.46042723    -0.54300
O564        O  0.60838436  0.31443504  0.50231085    -0.73660
C565        C  0.59257188  0.30283057  0.01916262     0.98680
O566        O  0.56444086  0.21209274  0.49545149    -0.62480
O567        O  0.55345182  0.25909803  0.37149095    -0.57280
O568        O  0.55209513  0.23555243  0.46385748    -0.93970
O569        O  0.54749216  0.25113361  0.42101319    -0.92390
O570        O  0.57950621  0.19683602  0.37098399    -0.92750
O571        O  0.57050917  0.19457307  0.42317423    -0.91530
C572        C  0.54142538  0.25184676  0.44733387     1.17530
H573        H  0.60288545  0.24797556  0.36190884     0.33470
H574        H  0.62060424  0.19550757  0.46417627     0.44320
H575        H  0.57824746  0.29635464  0.46568987     0.37850
H576        H  0.68094789  0.28000562  0.43639555     0.34330
H577        H  0.62032544  0.15480992  0.40093526     0.26110
H578        H  0.70784400  0.23527915  0.49787965     0.32050
H579        H  0.66338981  0.31680949  0.51217264     0.37960
H580        H  0.58406023  0.17892792  0.36552089     0.32420
H581        H  0.55771399  0.26747340  0.35286589     0.31300
H582        H  0.58723285  0.33011158  0.42654507     0.32980
H583        H  0.63535037  0.35441628  0.47888675     0.31950
H584        H  0.57453795  0.17961932  0.43566283     0.35950
H585        H  0.57277582  0.19530378  0.49102397     0.28680
H586        H  0.69059936  0.28401693  0.34410842     0.32910
H587        H  0.68549533  0.32494259  0.45459998     0.35760
H588        H  0.55874001  0.24093292  0.36879009     0.28370
H589        H  0.56469170  0.21314374  0.51675317     0.41240
H590        H  0.67639592  0.17750770  0.45161429     0.31300
H591        H  0.64747992  0.16617321  0.40933165     0.38920
H592        H  0.60927106  0.35032075  0.46238087     0.30770
H593        H  0.70412444  0.26262999  0.48426941     0.30830
H594        H  0.69403372  0.30189266  0.37134506     0.31100
Zr595      Zr  0.37302741  0.29413785  0.39171204     2.17510
O596        O  0.34916337  0.26406581  0.36122237    -0.51260
O597        O  0.37652045  0.32850531  0.35633616    -0.74470
O598        O  0.32737158  0.30593394  0.38853506    -0.81250
O599        O  0.43969267  0.25938333  0.38010824    -0.82990
O600        O  0.31504727  0.32586290  0.43052841    -0.78620
O601        O  0.40098190  0.26675078  0.35779269    -0.90260
O602        O  0.37607903  0.36325363  0.38431366    -0.76220
O603        O  0.36726405  0.33413089  0.41752939    -0.85710
O604        O  0.41438162  0.31438152  0.39431917    -0.85400
O605        O  0.35404327  0.28592204  0.43903892    -0.72150
O606        O  0.39817199  0.26451338  0.41955863    -0.84290
Zr607      Zr  0.41646518  0.31385246  0.49427500     2.26420
Zr608      Zr  0.35024241  0.32642505  0.46502852     2.06270
Zr609      Zr  0.43932385  0.28572592  0.42290467     2.10050
Zr610      Zr  0.40855242  0.35396735  0.41992345     1.78760
O611        O  0.47159385  0.25126409  0.42283468    -0.93090
O612        O  0.39389080  0.39730953  0.43185351    -0.40900
O613        O  0.43399676  0.32508875  0.44787064    -0.77530
O614        O  0.39240082  0.34562273  0.46735819    -0.96220
O615        O  0.37418359  0.29558975  0.49260067    -0.89520
O616        O  0.42201825  0.27446614  0.46833856    -0.92370
C617        C  0.37806540  0.35301954  0.35948992     1.01380
C618        C  0.42429504  0.25659951  0.35865229     1.14320
C619        C  0.31073963  0.31739033  0.40493121     1.05100
O620        O  0.32078473  0.36320909  0.46587562    -0.94520
O621        O  0.35600862  0.35642302  0.50652363    -0.90270
O622        O  0.39494749  0.34448727  0.02546128    -0.83410
C623        C  0.37458997  0.35862937  0.02528884     1.11740
O624        O  0.34530307  0.22810051  0.44824865    -0.96500
Zr625      Zr  0.37968156  0.25611591  0.46634389     1.88940
O626        O  0.42502672  0.27646055  0.02520262    -0.73140
O627        O  0.32025272  0.30420426  0.49723281    -0.52410
O628        O  0.34797485  0.24831565  0.50463579    -0.97090
O629        O  0.39548435  0.21376571  0.45160108    -0.54300
O630        O  0.40474226  0.24095139  0.50719633    -0.73660
C631        C  0.42017360  0.25215842  0.02501343     0.98680
O632        O  0.44085973  0.32463241  0.53786496    -0.62480
O633        O  0.46630950  0.31329412  0.39340098    -0.57280
O634        O  0.46001401  0.32769610  0.48614108    -0.93970
O635        O  0.47248050  0.29380804  0.45878566    -0.92390
O636        O  0.43828717  0.36328583  0.38009317    -0.92750
O637        O  0.44358592  0.38275063  0.43438537    -0.91530
C638        C  0.47736476  0.31333029  0.47505214     1.17530
H639        H  0.42162479  0.31663731  0.37518602     0.33470
H640        H  0.39295650  0.36248655  0.47601778     0.44320
H641        H  0.43518474  0.26311129  0.47590644     0.37850
H642        H  0.33693066  0.27855857  0.43664762     0.34330
H643        H  0.39961655  0.40805223  0.41535861     0.26110
H644        H  0.30383848  0.31415203  0.49583302     0.32050
H645        H  0.35297634  0.23147847  0.51301027     0.37960
H646        H  0.43621584  0.38196608  0.37645928     0.32420
H647        H  0.47928445  0.30098408  0.38595604     0.31300
H648        H  0.48621432  0.25785401  0.41098654     0.32980
H649        H  0.39633829  0.20352365  0.46961609     0.31950
H650        H  0.44657853  0.37872487  0.45502874     0.35950
H651        H  0.44271571  0.34362617  0.53807247     0.28680
H652        H  0.34081419  0.27481218  0.34618764     0.32910
H653        H  0.34435476  0.21348886  0.46195323     0.35760
H654        H  0.47581690  0.32416613  0.40732194     0.28370
H655        H  0.42915709  0.32064507  0.55431912     0.41240
H656        H  0.32972308  0.37646203  0.45410667     0.31300
H657        H  0.37468793  0.39666495  0.43023282     0.38920
H658        H  0.41389338  0.21661512  0.44608344     0.30770
H659        H  0.31650152  0.28772667  0.48733767     0.30830
H660        H  0.33462721  0.25771828  0.37338009     0.31100
Zr661      Zr  0.52070022  0.14679651  0.23840665     2.17510
O662        O  0.48679309  0.12608705  0.26701460    -0.51260
O663        O  0.55142821  0.15243460  0.27764988    -0.74470
O664        O  0.53194589  0.10149492  0.24360587    -0.81250
O665        O  0.49357517  0.21602017  0.24894568    -0.82990
O666        O  0.55236742  0.08623982  0.20290967    -0.78620
O667        O  0.49267862  0.17633000  0.26959045    -0.90260
O668        O  0.58517982  0.14558022  0.24922721    -0.76220
O669        O  0.56032856  0.13590187  0.21231956    -0.85710
O670        O  0.54465897  0.18589851  0.23312480    -0.85400
O671        O  0.51171100  0.12648250  0.19189911    -0.72150
O672        O  0.49343888  0.17364503  0.20970171    -0.84290
Zr673      Zr  0.54336795  0.18367777  0.13516431     2.26420
Zr674      Zr  0.55197023  0.11821701  0.16482327     2.06270
Zr675      Zr  0.51798747  0.21268638  0.20409182     2.10050
Zr676      Zr  0.58407053  0.17452877  0.20870424     1.78760
O677        O  0.48257768  0.24179813  0.19161248    -0.93090
O678        O  0.62462217  0.15058179  0.20298545    -0.40900
O679        O  0.55657360  0.20124685  0.18029796    -0.77530
O680        O  0.57414424  0.15808273  0.16189962    -0.96220
O681        O  0.52180100  0.14360606  0.13851307    -0.89520
O682        O  0.50451342  0.19371039  0.16078183    -0.92370
C683        C  0.57597840  0.15288505  0.27335122     1.01380
C684        C  0.48636474  0.20072960  0.26923060     1.14320
C685        C  0.54351678  0.08383269  0.22877539     1.05100
O686        O  0.58674627  0.08649483  0.16059751    -0.94520
O687        O  0.58056919  0.12626233  0.12005679    -0.90270
O688        O  0.55301277  0.15238140  0.09850287    -0.83410
C689        C  0.57530547  0.14202719  0.09905436     1.11740
O690        O  0.45258131  0.12328479  0.18721336    -0.96500
Zr691      Zr  0.48296833  0.15326827  0.16461527     1.88940
O692        O  0.50758621  0.19470990  0.10227208    -0.73140
O693        O  0.52609196  0.08790213  0.13696458    -0.52410
O694        O  0.47353649  0.12019874  0.12874643    -0.97090
O695        O  0.44006236  0.17042176  0.17659270    -0.54300
O696        O  0.47085176  0.17688013  0.12142641    -0.73660
C697        C  0.48277617  0.19088123  0.10276563     0.98680
O698        O  0.58694264  0.20364200  0.13326719    -0.62480
O699        O  0.53762589  0.24782233  0.23060851    -0.57280
O700        O  0.54341856  0.22732195  0.12404831    -0.93970
O701        O  0.54241119  0.24077476  0.17059145    -0.92390
O702        O  0.59716359  0.20873345  0.24156287    -0.92750
O703        O  0.62033705  0.20057373  0.19126790    -0.91530
C704        C  0.54816351  0.24386282  0.14347347     1.17530
H705        H  0.54784906  0.19441788  0.25122256     0.33470
H706        H  0.59101037  0.15657913  0.15290512     0.44320
H707        H  0.49419868  0.20699870  0.15185999     0.37850
H708        H  0.50309183  0.11023130  0.19527851     0.34330
H709        H  0.63400298  0.15328988  0.22140181     0.26110
H710        H  0.53901679  0.07818617  0.12532368     0.32050
H711        H  0.45700082  0.12573771  0.11971164     0.37960
H712        H  0.61481236  0.20372761  0.24806316     0.32420
H713        H  0.52262827  0.25822417  0.23731718     0.31300
H714        H  0.48633973  0.25786050  0.20233003     0.32980
H715        H  0.43163535  0.17405792  0.15782111     0.31950
H716        H  0.62556439  0.19286685  0.17254611     0.35950
H717        H  0.58817963  0.21745202  0.11871617     0.28680
H718        H  0.49546017  0.11238781  0.27833939     0.32910
H719        H  0.43972608  0.11887722  0.17210361     0.35760
H720        H  0.54506709  0.23991388  0.24817704     0.28370
H721        H  0.60045240  0.19088470  0.12814345     0.41240
H722        H  0.60245920  0.09560153  0.16751979     0.31300
H723        H  0.61935574  0.13224839  0.20345303     0.38920
H724        H  0.44353857  0.18757310  0.18509633     0.30770
H725        H  0.51971768  0.07532641  0.15141555     0.30830
H726        H  0.47595299  0.11693988  0.25267163     0.31100
Zr727      Zr  0.49970025  0.41642819  0.24239443     2.17510
O728        O  0.52519277  0.44269037  0.27558499    -0.51260
O729        O  0.47098138  0.40738281  0.28427220    -0.74470
O730        O  0.48766123  0.46149991  0.23997272    -0.81250
O731        O  0.53644320  0.35191263  0.25754519    -0.82990
O732        O  0.46409490  0.47113464  0.19958279    -0.78620
O733        O  0.53752974  0.39455883  0.26818326    -0.90260
O734        O  0.43473517  0.40927049  0.25884674    -0.76220
O735        O  0.45805708  0.42082154  0.21858069    -0.85710
O736        O  0.47949881  0.37568226  0.24293483    -0.85400
O737        O  0.50521976  0.43146728  0.19244105    -0.72150
O738        O  0.52837284  0.39118038  0.21362017    -0.84290
Zr739      Zr  0.47572068  0.36418449  0.14340507     2.26420
Zr740      Zr  0.46329093  0.43293469  0.16841840     2.06270
Zr741      Zr  0.50868805  0.35000180  0.21622132     2.10050
Zr742      Zr  0.43824912  0.37999114  0.21890991     1.78760
O743        O  0.55506085  0.35263848  0.20529179    -0.93090
O744        O  0.39631454  0.36018828  0.23055422    -0.40900
O745        O  0.46723649  0.35241410  0.19265448    -0.77530
O746        O  0.44485012  0.39026076  0.16975714    -0.96220
O747        O  0.49270934  0.40702641  0.14019103    -0.89520
O748        O  0.51649241  0.36205908  0.16713755    -0.92370
C749        C  0.44622395  0.40492088  0.28242179     1.01380
C750        C  0.54618355  0.37099511  0.27106753     1.14320
C751        C  0.47490980  0.47709581  0.22376381     1.05100
O752        O  0.42546558  0.46104917  0.16453779    -0.94520
O753        O  0.43200233  0.42274192  0.12876844    -0.90270
O754        O  0.44427435  0.38360997  0.11095568    -0.83410
C755        C  0.42934410  0.40343290  0.11123135     1.11740
O756        O  0.56398457  0.43761834  0.18061503    -0.96500
Zr757      Zr  0.53366322  0.40474038  0.16400911     1.88940
O758        O  0.51028528  0.35799369  0.10685970    -0.73140
O759        O  0.48465886  0.46150585  0.13411740    -0.52410
O760        O  0.53287617  0.43629075  0.12515702    -0.97090
O761        O  0.58074198  0.39877773  0.16694357    -0.54300
O762        O  0.54686466  0.37753203  0.12338222    -0.73660
C763        C  0.53491782  0.36269920  0.10557922     0.98680
O764        O  0.45122001  0.33326120  0.11462995    -0.62480
O765        O  0.50291829  0.31241415  0.24780913    -0.57280
O766        O  0.47778312  0.31837388  0.15374929    -0.93970
O767        O  0.49535957  0.31012180  0.19584797    -0.92390
O768        O  0.40249547  0.40714770  0.20153593    -0.92750
O769        O  0.42581318  0.33731327  0.23602645    -0.91530
C770        C  0.49603861  0.30837641  0.16873373     1.17530
H771        H  0.47949448  0.36846281  0.26192036     0.33470
H772        H  0.42781472  0.38835131  0.16161562     0.44320
H773        H  0.52718536  0.34921580  0.15797367     0.37850
H774        H  0.51251308  0.44859736  0.19264814     0.34330
H775        H  0.38634466  0.37357376  0.24115638     0.26110
H776        H  0.47058053  0.46708018  0.12094904     0.32050
H777        H  0.54952661  0.43359882  0.11471737     0.37960
H778        H  0.39118751  0.39653492  0.18908272     0.32420
H779        H  0.50544204  0.31818790  0.26798543     0.31300
H780        H  0.55926258  0.34525155  0.18621731     0.32980
H781        H  0.58718714  0.39985495  0.14677680     0.31950
H782        H  0.43837722  0.32518911  0.22706847     0.35950
H783        H  0.45442904  0.33810786  0.09425299     0.28680
H784        H  0.51253399  0.45344411  0.28641070     0.32910
H785        H  0.55734080  0.45405627  0.17266692     0.35760
H786        H  0.48427888  0.30768072  0.24687521     0.28370
H787        H  0.43254754  0.33688265  0.11819595     0.41240
H788        H  0.41308377  0.45454447  0.17924260     0.31300
H789        H  0.38690410  0.35792052  0.21205305     0.38920
H790        H  0.58367459  0.38068025  0.17256618     0.30770
H791        H  0.48892250  0.47710283  0.14548010     0.30830
H792        H  0.53498965  0.45484290  0.26323122     0.31100
Zr793      Zr  0.14330483  0.29730474  0.36167938     2.17510
O794        O  0.16651761  0.26734261  0.39296675    -0.51260
O795        O  0.13274572  0.33452710  0.39270204    -0.74470
O796        O  0.18735777  0.31239203  0.37153446    -0.81250
O797        O  0.07967078  0.25728162  0.36688277    -0.82990
O798        O  0.20613406  0.32598481  0.32970184    -0.78620
O799        O  0.11331754  0.27174950  0.39436437    -0.90260
O800        O  0.13251398  0.36716393  0.36078337    -0.76220
O801        O  0.15105026  0.33513457  0.33307731    -0.85710
O802        O  0.10145352  0.31300959  0.34893132    -0.85400
O803        O  0.16906988  0.28653610  0.31917142    -0.72150
O804        O  0.12462787  0.26315626  0.33382092    -0.84290
Zr805      Zr  0.11808686  0.30120730  0.25109815     2.26420
Zr806      Zr  0.17529892  0.32524760  0.28997582     2.06270
Zr807      Zr  0.08278772  0.27959116  0.32050172     2.10050
Zr808      Zr  0.10948422  0.35023079  0.32010579     1.78760
O809        O  0.05813988  0.23996962  0.31421864    -0.93090
O810        O  0.12760789  0.39062861  0.30166897    -0.40900
O811        O  0.09328475  0.31572098  0.29236611    -0.77530
O812        O  0.13229831  0.33841750  0.27714873    -0.96220
O813        O  0.16021834  0.28807398  0.26381670    -0.89520
O814        O  0.10839552  0.26501512  0.28101761    -0.92370
C815        C  0.13138417  0.35874175  0.38654304     1.01380
C816        C  0.09212344  0.25830775  0.39091240     1.14320
C817        C  0.20687746  0.32102752  0.35692853     1.05100
O818        O  0.19558366  0.36738076  0.29356845    -0.94520
O819        O  0.16930583  0.35381582  0.24633001    -0.90270
O820        O  0.14856035  0.32449766  0.22014966    -0.83410
C821        C  0.15678642  0.34761442  0.22315372     1.11740
O822        O  0.18393363  0.22873089  0.32131795    -0.96500
Zr823      Zr  0.15091637  0.25081686  0.29274467     1.88940
O824        O  0.11348096  0.26041889  0.22506469    -0.73140
O825        O  0.21311059  0.30896364  0.26386965    -0.52410
O826        O  0.18740921  0.24252144  0.26023520    -0.97090
O827        O  0.13861975  0.20875700  0.31166273    -0.54300
O828        O  0.13196135  0.22824019  0.25080506    -0.73660
C829        C  0.11879001  0.23651153  0.22905537     0.98680
O830        O  0.09938475  0.29875427  0.20284731    -0.62480
O831        O  0.04401560  0.29923566  0.34137524    -0.57280
O832        O  0.07703522  0.32032788  0.25260265    -0.93970
O833        O  0.05671431  0.28852159  0.27675733    -0.92390
O834        O  0.07201386  0.36073841  0.35049309    -0.92750
O835        O  0.07483965  0.37514768  0.29762894    -0.91530
C836        C  0.05808058  0.30534219  0.25609056     1.17530
H837        H  0.09111221  0.31669907  0.36592379     0.33470
H838        H  0.12925587  0.35362774  0.26575340     0.44320
H839        H  0.09713110  0.25217279  0.27278460     0.37850
H840        H  0.18595898  0.28073227  0.32558072     0.34330
H841        H  0.11382733  0.40387874  0.30333029     0.26110
H842        H  0.22658650  0.32233263  0.26671650     0.32050
H843        H  0.18516806  0.22442694  0.25393611     0.37960
H844        H  0.05791489  0.34920556  0.34386846     0.32420
H845        H  0.03028788  0.28618189  0.33839315     0.31300
H846        H  0.04059960  0.24564462  0.30806057     0.32980
H847        H  0.14100935  0.19666417  0.29529443     0.31950
H848        H  0.07902114  0.37454568  0.27672851     0.35950
H849        H  0.09173928  0.31563652  0.19834922     0.28680
H850        H  0.15697802  0.25084110  0.39152504     0.32910
H851        H  0.19079667  0.21481045  0.30875661     0.35760
H852        H  0.04708419  0.29913396  0.36248576     0.28370
H853        H  0.11416965  0.29678747  0.18930218     0.41240
H854        H  0.18679930  0.37573810  0.31020952     0.31300
H855        H  0.14094078  0.39592213  0.31586444     0.38920
H856        H  0.11952086  0.20986257  0.31438757     0.30770
H857        H  0.21917539  0.29417110  0.27556675     0.30830
H858        H  0.18304449  0.26375750  0.38261061     0.31100
Zr859      Zr  0.87929230  0.27142197  0.36615029     2.17510
O860        O  0.85456746  0.30419056  0.39205672    -0.51260
O861        O  0.88624227  0.23615287  0.40086141    -0.74470
O862        O  0.83532209  0.25634853  0.37480550    -0.81250
O863        O  0.93950077  0.31588225  0.36667304    -0.82990
O864        O  0.81987586  0.23652126  0.33434591    -0.78620
O865        O  0.90892721  0.30016405  0.39730200    -0.90260
O866        O  0.88443953  0.20276859  0.37043728    -0.76220
O867        O  0.87308954  0.23149015  0.34038472    -0.85710
O868        O  0.92110667  0.25337419  0.35943389    -0.85400
O869        O  0.85616935  0.27755624  0.32058824    -0.72150
O870        O  0.90016246  0.30243264  0.33607376    -0.84290
Zr871      Zr  0.91484319  0.25520280  0.26052389     2.26420
Zr872      Zr  0.85208535  0.23700564  0.29421643     2.06270
Zr873      Zr  0.94266127  0.28391017  0.32969733     2.10050
Zr874      Zr  0.91491844  0.21391534  0.33342011     1.78760
O875        O  0.98290028  0.30875127  0.32934057    -0.93090
O876        O  0.89599885  0.17409103  0.31386823    -0.40900
O877        O  0.93702899  0.24518532  0.30475729    -0.77530
O878        O  0.89539566  0.22147597  0.28763621    -0.96220
O879        O  0.87154990  0.27019833  0.26593427    -0.89520
O880        O  0.91943162  0.29494914  0.28680547    -0.92370
C881        C  0.88598908  0.21169243  0.39585062     1.01380
C882        C  0.92892825  0.31505198  0.39163094     1.14320
C883        C  0.81736262  0.24450596  0.36081141     1.05100
O884        O  0.82774610  0.19696171  0.29329917    -0.94520
O885        O  0.86291973  0.20773925  0.25070156    -0.90270
O886        O  0.89339272  0.22900138  0.22444560    -0.83410
C887        C  0.87959678  0.20890849  0.22918473     1.11740
O888        O  0.84334745  0.33603619  0.31522938    -0.96500
Zr889      Zr  0.87662834  0.30988141  0.29145033     1.88940
O890        O  0.91875347  0.29165847  0.22630813    -0.73140
O891        O  0.81694318  0.25593822  0.26614453    -0.52410
O892        O  0.84090941  0.31453905  0.25737335    -0.97090
O893        O  0.88765703  0.35406929  0.30378287    -0.54300
O894        O  0.89771480  0.32592437  0.24645654    -0.73660
C895        C  0.91240488  0.31578623  0.22667403     0.98680
O896        O  0.94766498  0.22456421  0.27993153    -0.62480
O897        O  0.97380317  0.25457021  0.35213481    -0.57280
O898        O  0.95373577  0.26334691  0.23697979    -0.93970
O899        O  0.95701215  0.27723493  0.28102722    -0.92390
O900        O  0.94801708  0.20237571  0.36889073    -0.92750
O901        O  0.95205764  0.18466112  0.32785784    -0.91530
C902        C  0.96666106  0.27502808  0.25601039     1.17530
H903        H  0.92958831  0.25110490  0.37783935     0.33470
H904        H  0.89811317  0.20531280  0.27798668     0.44320
H905        H  0.92843233  0.30898341  0.27769093     0.37850
H906        H  0.83884513  0.28367857  0.32501515     0.34330
H907        H  0.90956045  0.16059094  0.31300258     0.26110
H908        H  0.80519731  0.24132455  0.26190507     0.32050
H909        H  0.84196882  0.33265691  0.25080502     0.37960
H910        H  0.94135632  0.20835782  0.38784179     0.32420
H911        H  0.99110716  0.25987924  0.34484906     0.31300
H912        H  0.97846143  0.32618324  0.33652234     0.32980
H913        H  0.88402539  0.36405921  0.28603019     0.31950
H914        H  0.95051305  0.17598923  0.30890027     0.35950
H915        H  0.96489368  0.22596014  0.27029813     0.28680
H916        H  0.86416738  0.32039491  0.38849362     0.32910
H917        H  0.82661134  0.32734477  0.31118577     0.35760
H918        H  0.97390771  0.25879241  0.37297475     0.28370
H919        H  0.94193632  0.20666388  0.27632214     0.41240
H920        H  0.83866178  0.18471432  0.30433297     0.31300
H921        H  0.88314657  0.16804979  0.32832073     0.38920
H922        H  0.90685982  0.35396942  0.30553080     0.30770
H923        H  0.80715686  0.26662899  0.28022697     0.30830
H924        H  0.83849352  0.30635940  0.38054660     0.31100
Zr925      Zr  0.99259483  0.15393185  0.01472879     2.17510
O926        O  0.01581426  0.13427508  0.97418870    -0.51260
O927        O  0.95417465  0.16258531  0.48501540    -0.74470
O928        O  0.98338988  0.10806733  0.00908277    -0.81250
O929        O  0.02907705  0.21930765  0.00623513    -0.82990
O930        O  0.96483988  0.09177194  0.05019173    -0.78620
O931        O  0.02048009  0.18231947  0.48181881    -0.90260
O932        O  0.92080600  0.16103877  0.01643361    -0.76220
O933        O  0.95433812  0.14610913  0.04371551    -0.85710
O934        O  0.97476389  0.19501747  0.02549067    -0.85400
O935        O  0.00418234  0.13058201  0.05853423    -0.72150
O936        O  0.02617172  0.17457599  0.04187525    -0.84290
Zr937      Zr  0.98512875  0.18617962  0.12450951     2.26420
Zr938      Zr  0.96528058  0.12467782  0.08819587     2.06270
Zr939      Zr  0.00776366  0.21580558  0.05294190     2.10050
Zr940      Zr  0.93705509  0.18714159  0.05460536     1.78760
O941        O  0.04653771  0.24043107  0.06509949    -0.93090
O942        O  0.89698124  0.16853818  0.07432723    -0.40900
O943        O  0.97103168  0.20645471  0.08102478    -0.77530
O944        O  0.94965257  0.16709880  0.09827992    -0.96220
O945        O  0.00034494  0.14392057  0.11493845    -0.89520
O946        O  0.02248461  0.19411646  0.09502797    -0.92370
C947        C  0.92964375  0.16259729  0.49083258     1.01380
C948        C  0.03094945  0.20522619  0.48339391     1.14320
C949        C  0.97319652  0.08972719  0.02398265     1.05100
O950        O  0.92658070  0.09769912  0.08762464    -0.94520
O951        O  0.93586732  0.12982535  0.13178055    -0.90270
O952        O  0.95383489  0.16381829  0.15515362    -0.83410
C953        C  0.93650015  0.14608265  0.15316297     1.11740
O954        O  0.06359588  0.11923930  0.05944409    -0.96500
Zr955      Zr  0.03796091  0.15162065  0.08518608     1.88940
O956        O  0.02611109  0.18941221  0.15262118    -0.73140
O957        O  0.98751012  0.09158336  0.11603574    -0.52410
O958        O  0.04612226  0.11523200  0.11716120    -0.97090
O959        O  0.08018972  0.16612861  0.06746280    -0.54300
O960        O  0.05876957  0.17014710  0.12755022    -0.73660
C961        C  0.05030095  0.18328991  0.14912343     0.98680
O962        O  0.98281654  0.20604701  0.17182842    -0.62480
O963        O  0.99223253  0.25136857  0.02412857    -0.57280
O964        O  0.96788666  0.22921263  0.12449799    -0.93970
O965        O  0.98700809  0.24718595  0.08519239    -0.92390
O966        O  0.92350788  0.22102043  0.02142154    -0.92750
O967        O  0.91102924  0.22131089  0.07648991    -0.91530
C968        C  0.97272511  0.24838753  0.10823856     1.17530
H969        H  0.97084326  0.20463270  0.00816859     0.33470
H970        H  0.93345337  0.16902694  0.10848594     0.44320
H971        H  0.03509927  0.20546393  0.10365234     0.37850
H972        H  0.01115365  0.11388733  0.05347668     0.34330
H973        H  0.88335682  0.18199613  0.07355276     0.26110
H974        H  0.97361014  0.07926804  0.12137328     0.32050
H975        H  0.06364317  0.11836524  0.12528477     0.37960
H976        H  0.93345070  0.23645398  0.02727232     0.32420
H977        H  0.97479863  0.25544930  0.03202833     0.31300
H978        H  0.04116606  0.25868378  0.06328720     0.32980
H979        H  0.09192606  0.16543955  0.08437402     0.31950
H980        H  0.91626645  0.22138886  0.09706799     0.35950
H981        H  0.96430373  0.21107717  0.17340917     0.28680
H982        H  0.00244006  0.12601321  0.46197579     0.32910
H983        H  0.07847958  0.11510924  0.07218644     0.35760
H984        H  0.00351471  0.26584221  0.03004803     0.28370
H985        H  0.98497328  0.19173376  0.18575965     0.41240
H986        H  0.91361716  0.10786100  0.07665276     0.31300
H987        H  0.89131752  0.15526124  0.06034300     0.38920
H988        H  0.07775625  0.18472735  0.06358655     0.30770
H989        H  0.99824860  0.08222187  0.10161806     0.30830
H990        H  0.02599249  0.11987332  0.98249623     0.31100
Zr991      Zr  0.03010049  0.42259989  0.01192296     2.17510
O992        O  0.00773082  0.44966559  0.97672496    -0.51260
O993        O  0.06652338  0.41578891  0.47806172    -0.74470
O994        O  0.04148850  0.46781575  0.01567551    -0.81250
O995        O  0.99198336  0.35946998  0.99102433    -0.82990
O996        O  0.06053238  0.47687302  0.05912204    -0.78620
O997        O  0.99836500  0.40083411  0.47683484    -0.90260
O998        O  0.10044821  0.41203904  0.00742565    -0.76220
O999        O  0.06931594  0.42376928  0.04054591    -0.85710
O1000       O  0.04693181  0.38025475  0.01299475    -0.85400
O1001       O  0.02035613  0.43794538  0.06081994    -0.72150
O1002       O  0.99667039  0.39955321  0.03601733    -0.84290
Zr1003     Zr  0.03923862  0.37031104  0.11222187     2.26420
Zr1004     Zr  0.06017167  0.43751636  0.08934300     2.06270
Zr1005     Zr  0.01321708  0.35681908  0.03583868     2.10050
Zr1006     Zr  0.08540741  0.38107844  0.04192490     1.78760
O1007       O  0.96632264  0.35693256  0.04574762    -0.93090
O1008       O  0.12527571  0.39695871  0.06463710    -0.40900
O1009       O  0.05183516  0.35665805  0.06436452    -0.77530
O1010       O  0.07452477  0.39328164  0.08976230    -0.96220
O1011       O  0.02555040  0.41414272  0.11298980    -0.89520
O1012       O  0.00087784  0.36979548  0.08369898    -0.92370
C1013       C  0.09112826  0.41300896  0.48221021     1.01380
C1014       C  0.98811940  0.37789442  0.47372088     1.14320
C1015       C  0.05214667  0.48326517  0.03378688     1.05100
O1016       O  0.10080097  0.46146441  0.09186173    -0.94520
O1017       O  0.08943075  0.42419003  0.13058614    -0.90270
O1018       O  0.06634220  0.39100301  0.14908086    -0.83410
C1019       C  0.08667329  0.40552786  0.14902074     1.11740
O1020       O  0.96139686  0.44889383  0.06433242    -0.96500
Zr1021     Zr  0.98680988  0.41360815  0.08474780     1.88940
O1022       O  0.00029300  0.36466764  0.14314896    -0.73140
O1023       O  0.04060905  0.46679552  0.12436540    -0.52410
O1024       O  0.98487014  0.44547197  0.12338786    -0.97090
O1025       O  0.94094308  0.40610925  0.07414363    -0.54300
O1026       O  0.96745272  0.38868925  0.12449704    -0.73660
C1027       C  0.97636281  0.37222519  0.14274224     0.98680
O1028       O  0.05355374  0.33924352  0.14755999    -0.62480
O1029       O  0.01848838  0.32508109  0.99678226    -0.57280
O1030       O  0.04271169  0.32566596  0.09710648    -0.93970
O1031       O  0.02562705  0.31610759  0.05532342    -0.92390
O1032       O  0.09810766  0.35203287  0.00289607    -0.92750
O1033       O  0.11262387  0.34391700  0.05310903    -0.91530
C1034       C  0.02479558  0.31473130  0.08246305     1.17530
H1035       H  0.05013463  0.37346833  0.99385943     0.33470
H1036       H  0.09045457  0.38931787  0.09967255     0.44320
H1037       H  0.98831484  0.35773477  0.09117587     0.37850
H1038       H  0.01391043  0.45540175  0.05983885     0.34330
H1039       H  0.13901171  0.38396246  0.06103579     0.26110
H1040       H  0.05544604  0.47686770  0.13194845     0.32050
H1041       H  0.96845814  0.44168849  0.13382995     0.37960
H1042       H  0.08427350  0.33878090  0.00235929     0.32420
H1043       H  0.03362664  0.33104912  0.98530703     0.31300
H1044       H  0.95796412  0.36671770  0.02994182     0.32980
H1045       H  0.93133275  0.41394716  0.09055458     0.31950
H1046       H  0.10845856  0.33987522  0.07352349     0.35950
H1047       H  0.07277664  0.33974878  0.14735243     0.28680
H1048       H  0.02181209  0.45885582  0.46595551     0.32910
H1049       H  0.95447460  0.45871500  0.08103853     0.35760
H1050       H  0.02446973  0.30857079  0.00508120     0.28370
H1051       H  0.04766216  0.34592611  0.16648975     0.41240
H1052       H  0.11087176  0.45560885  0.07477527     0.31300
H1053       H  0.13059701  0.41221982  0.05327391     0.38920
H1054       H  0.93830369  0.38739104  0.07668127     0.30770
H1055       H  0.03065480  0.47924024  0.11251579     0.30830
H1056       H  0.99849872  0.46305385  0.98810136     0.31100
C1057       C  0.96252230  0.27365847  0.11682741    -0.05270
C1058       C  0.95636961  0.28863210  0.09307364    -0.02380
C1059       C  0.97711586  0.30196373  0.08015262     0.02610
C1060       C  0.00080529  0.30509885  0.09624872    -0.05270
C1061       C  0.00152736  0.29651845  0.12535536    -0.02370
C1062       C  0.97929822  0.28454314  0.13675377     0.02600
C1063       C  0.93259408  0.28299519  0.07758751     0.37250
C1064       C  0.02622766  0.29208131  0.13936211     0.37240
C1065       C  0.97918170  0.27316278  0.16484497     0.35670
C1066       C  0.97519997  0.30629928  0.04934220     0.35670
N1067       N  0.97788333  0.26209470  0.18628583    -0.39150
N1068       N  0.97253686  0.30846750  0.02462122    -0.39150
N1069       N  0.04649194  0.28749579  0.14885011    -0.38600
N1070       N  0.91356424  0.27880091  0.06514994    -0.38600
C1071       C  0.91558679  0.14790834  0.17642045    -0.05270
C1072       C  0.92472058  0.15408271  0.20410362    -0.02380
C1073       C  0.91485324  0.17636620  0.21751753     0.02610
C1074       C  0.88886095  0.18476252  0.21294918    -0.05270
C1075       C  0.87568579  0.17305709  0.18939989    -0.02370
C1076       C  0.88966815  0.15604820  0.17003095     0.02600
C1077       C  0.94916695  0.14316091  0.21402909     0.37250
C1078       C  0.84929859  0.18088150  0.18304860     0.37240
C1079       C  0.87789060  0.14780690  0.14326523     0.35670
C1080       C  0.93432263  0.19541728  0.22315545     0.35670
N1081       N  0.86825841  0.14098581  0.12202663    -0.39150
N1082       N  0.95033215  0.21091606  0.22391537    -0.39150
N1083       N  0.82814220  0.18709165  0.17801638    -0.38600
N1084       N  0.96868192  0.13455223  0.22193108    -0.38600
C1085       C  0.88973086  0.19291636  0.41960571    -0.05270
C1086       C  0.87994110  0.19823468  0.44737422    -0.02380
C1087       C  0.88986454  0.18477263  0.47127874     0.02610
C1088       C  0.91088832  0.16731864  0.46734240    -0.05270
C1089       C  0.91655887  0.15825839  0.43950794    -0.02370
C1090       C  0.90544040  0.17052967  0.41553223     0.02600
C1091       C  0.85966334  0.21744081  0.45132042     0.37250
C1092       C  0.93428671  0.13661739  0.43563769     0.37240
C1093       C  0.91151872  0.16013251  0.38729603     0.35670
C1094       C  0.87865431  0.18964936  0.49952093     0.35670
N1095       N  0.91728153  0.15026726  0.36579608    -0.39150
N1096       N  0.86882845  0.19396333  0.02160848    -0.39150
N1097       N  0.94838363  0.11939240  0.43258387    -0.38600
N1098       N  0.84339827  0.23263875  0.45454936    -0.38600
C1099       C  0.92491321  0.33312603  0.20415110    -0.05270
C1100       C  0.93893686  0.35556094  0.21236738    -0.02380
C1101       C  0.95699291  0.36718133  0.19304993     0.02610
C1102       C  0.95755641  0.36001472  0.16368376    -0.05270
C1103       C  0.93938781  0.34144812  0.15417577    -0.02370
C1104       C  0.92500771  0.32650007  0.17442089     0.02600
C1105       C  0.93350300  0.36827871  0.23953027     0.37250
C1106       C  0.93373498  0.33957622  0.12365682     0.37240
C1107       C  0.90932010  0.30516376  0.16436129     0.35670
C1108       C  0.97426649  0.38730059  0.20313037     0.35670
N1109       N  0.89687383  0.28806647  0.15628298    -0.39150
N1110       N  0.98819286  0.40327795  0.21110288    -0.39150
N1111       N  0.92841246  0.33932231  0.09938409    -0.38600
N1112       N  0.92909375  0.37965027  0.26051418    -0.38600
C1113       C  0.94277542  0.33223780  0.41385517    -0.05270
C1114       C  0.97053212  0.33398922  0.41276847    -0.02380
C1115       C  0.98436029  0.35343856  0.42784521     0.02610
C1116       C  0.97182674  0.36936898  0.44825768    -0.05270
C1117       C  0.94429898  0.36696459  0.45083101    -0.02370
C1118       C  0.92982342  0.34938630  0.43303465     0.02600
C1119       C  0.98574502  0.31399384  0.39882939     0.37250
C1120       C  0.93093717  0.38219487  0.47253052     0.37240
C1121       C  0.90173157  0.34872558  0.43501268     0.35670
C1122       C  0.01230250  0.35606780  0.42380849     0.35670
N1123       N  0.87925953  0.34835327  0.43682495    -0.39150
N1124       N  0.03449081  0.35866654  0.42054441    -0.39150
N1125       N  0.92032068  0.39437505  0.48993112    -0.38600
N1126       N  0.99892705  0.29817477  0.38895549    -0.38600
C1127       C  0.14721360  0.36695230  0.20051528    -0.05270
C1128       C  0.13089576  0.35669074  0.17927242    -0.02380
C1129       C  0.10758152  0.36929851  0.17403562     0.02610
C1130       C  0.10879892  0.39561070  0.16818369    -0.05270
C1131       C  0.12878528  0.40910564  0.18351889    -0.02370
C1132       C  0.14619876  0.39461486  0.20250430     0.02600
C1133       C  0.13840130  0.33485270  0.16178503     0.37250
C1134       C  0.12947942  0.43687883  0.18251402     0.37240
C1135       C  0.16223015  0.40781826  0.22333729     0.35670
C1136       C  0.08780262  0.36407461  0.19541814     0.35670
N1137       N  0.17498951  0.41843917  0.24010628    -0.39150
N1138       N  0.07207950  0.36110339  0.21300770    -0.39150
N1139       N  0.12998637  0.45915610  0.18172863    -0.38600
N1140       N  0.14468196  0.31753963  0.14757502    -0.38600
C1141       C  0.12695916  0.37812823  0.40977398    -0.05270
C1142       C  0.13878773  0.37534917  0.43697452    -0.02380
C1143       C  0.13033288  0.39060886  0.46040255     0.02610
C1144       C  0.10847444  0.40716936  0.45715224    -0.05270
C1145       C  0.10040508  0.41354916  0.42904878    -0.02370
C1146       C  0.10984152  0.39935334  0.40529117     0.02600
C1147       C  0.15998887  0.35719899  0.44083341     0.37250
C1148       C  0.08225434  0.43466890  0.42460056     0.37240
C1149       C  0.10090349  0.40649602  0.37672378     0.35670
C1150       C  0.14447650  0.38903682  0.48738234     0.35670
N1151       N  0.09353350  0.41307370  0.35431174    -0.39150
N1152       N  0.15651555  0.38782035  0.00832553    -0.39150
N1153       N  0.06785430  0.45153798  0.42103223    -0.38600
N1154       N  0.17703749  0.34294721  0.44423997    -0.38600
C1155       C  0.07925269  0.24432740  0.41632525    -0.05270
C1156       C  0.06093914  0.25768127  0.43350060    -0.02380
C1157       C  0.04366166  0.24441937  0.45247242     0.02610
C1158       C  0.04623696  0.21749992  0.45810374    -0.05270
C1159       C  0.06519431  0.20404077  0.44136918    -0.02370
C1160       C  0.08083261  0.21716158  0.42010299     0.02600
C1161       C  0.05962703  0.28550121  0.43131512     0.37250
C1162       C  0.06872334  0.17667580  0.44591123     0.37240
C1163       C  0.09874354  0.20266763  0.40210525     0.35670
C1164       C  0.02120789  0.25840589  0.46319021     0.35670
N1165       N  0.11304086  0.19110391  0.38766374    -0.39150
N1166       N  0.00302793  0.27018434  0.46992174    -0.39150
N1167       N  0.07158333  0.15478786  0.44947748    -0.38600
N1168       N  0.05911690  0.30772919  0.42981711    -0.38600
C1169       C  0.10581248  0.21787919  0.20890138    -0.05270
C1170       C  0.08565339  0.20164779  0.21932563    -0.02380
C1171       C  0.06793145  0.18980876  0.19992208     0.02610
C1172       C  0.07013303  0.19385601  0.16981519    -0.05270
C1173       C  0.09098342  0.20918143  0.15933931    -0.02370
C1174       C  0.10871940  0.22092314  0.17869862     0.02600
C1175       C  0.08175059  0.19867857  0.25018549     0.37250
C1176       C  0.09287932  0.21503654  0.12875529     0.37240
C1177       C  0.12894010  0.23775876  0.16761338     0.35670
C1178       C  0.04701908  0.17386359  0.21100802     0.35670
N1179       N  0.14497093  0.25132244  0.15883171    -0.39150
N1180       N  0.03026602  0.16118329  0.21979822    -0.39150
N1181       N  0.09446205  0.22014188  0.10447267    -0.38600
N1182       N  0.07843322  0.19620952  0.27477792    -0.38600
C1183       C  0.03756630  0.30703279  0.23537440    -0.05270
C1184       C  0.01785715  0.32387964  0.24407488    -0.02380
C1185       C  0.99433815  0.31313513  0.25267389     0.02610
C1186       C  0.99072067  0.28643211  0.24877696    -0.05270
C1187       C  0.00953189  0.27093446  0.23533093    -0.02370
C1188       C  0.03140590  0.28281548  0.22438052     0.02600
C1189       C  0.02368389  0.35058971  0.25055647     0.37250
C1190       C  0.00787104  0.24293960  0.23536725     0.37240
C1191       C  0.05031924  0.26799716  0.20851506     0.35670
C1192       C  0.97643743  0.32869400  0.26947520     0.35670
N1193       N  0.06436567  0.25562075  0.19480786    -0.39150
N1194       N  0.96364414  0.34157200  0.28420735    -0.39150
N1195       N  0.00726503  0.22066154  0.23556278    -0.38600
N1196       N  0.02771916  0.37197671  0.25597069    -0.38600
C1197       C  0.55899606  0.26873987  0.13384073    -0.05270
C1198       C  0.56538476  0.28440594  0.15693177    -0.02380
C1199       C  0.54404083  0.29621901  0.17069547     0.02610
C1200       C  0.51996823  0.29853450  0.15494058    -0.05270
C1201       C  0.51948808  0.29060202  0.12549871    -0.02370
C1202       C  0.54230435  0.27979160  0.11387152     0.02600
C1203       C  0.58980089  0.27972569  0.17165985     0.37250
C1204       C  0.49503928  0.28609903  0.11094898     0.37240
C1205       C  0.54468176  0.27185090  0.08423192     0.35670
C1206       C  0.54632676  0.29995616  0.20156822     0.35670
N1207       N  0.54801312  0.26525158  0.06069044    -0.39150
N1208       N  0.55026682  0.30207471  0.22606383    -0.39150
N1209       N  0.47523526  0.28147865  0.10030395    -0.38600
N1210       N  0.60924857  0.27598180  0.18351027    -0.38600
C1211       C  0.28407642  0.32043136  0.39398520    -0.05270
C1212       C  0.27926047  0.33503453  0.36903841    -0.02380
C1213       C  0.25374434  0.33713151  0.35817148     0.02610
C1214       C  0.23271211  0.32389167  0.37187308    -0.05270
C1215       C  0.23770656  0.31120665  0.39861916    -0.02370
C1216       C  0.26328770  0.30910582  0.40912162     0.02600
C1217       C  0.30060760  0.34826589  0.35469316     0.37250
C1218       C  0.21712468  0.30006781  0.41608791     0.37240
C1219       C  0.26836999  0.29404755  0.43499167     0.35670
C1220       C  0.24970858  0.35367986  0.33332425     0.35670
N1221       N  0.27218443  0.28187251  0.45548281    -0.39150
N1222       N  0.24748304  0.36713845  0.31356262    -0.39150
N1223       N  0.20150586  0.29118865  0.43113695    -0.38600
N1224       N  0.31743813  0.35892242  0.34311933    -0.38600
C1225       C  0.37495821  0.37920900  0.04770340    -0.05270
C1226       C  0.39016049  0.40144989  0.04223630    -0.02380
C1227       C  0.40583881  0.41227423  0.06435434     0.02610
C1228       C  0.40604870  0.40108619  0.09209078    -0.05270
C1229       C  0.38733743  0.38179628  0.09854788    -0.02370
C1230       C  0.37154253  0.37135158  0.07651018     0.02600
C1231       C  0.39152951  0.41169419  0.01318658     0.37250
C1232       C  0.38617371  0.37041972  0.12710359     0.37240
C1233       C  0.35401603  0.35015479  0.08267364     0.35670
C1234       C  0.42346870  0.43327269  0.05794875     0.35670
N1235       N  0.33998724  0.33325516  0.08743677    -0.39150
N1236       N  0.43752535  0.45008860  0.05290813    -0.39150
N1237       N  0.38489845  0.36054794  0.14947049    -0.38600
N1238       N  0.39234295  0.42022543  0.49016513    -0.38600
C1239       C  0.43023619  0.39294444  0.30537828    -0.05270
C1240       C  0.41304028  0.40795576  0.32233476    -0.02380
C1241       C  0.39301641  0.39575975  0.33848036     0.02610
C1242       C  0.38870674  0.36883694  0.33533876    -0.05270
C1243       C  0.40251197  0.35566916  0.31364072    -0.02370
C1244       C  0.42541517  0.36633802  0.30288465     0.02600
C1245       C  0.41666232  0.43559511  0.32401603     0.37250
C1246       C  0.39404641  0.33071610  0.30289620     0.37240
C1247       C  0.44487693  0.34866999  0.29254311     0.35670
C1248       C  0.37643164  0.41099887  0.35730356     0.35670
N1249       N  0.45937310  0.33278230  0.28561946    -0.39150
N1250       N  0.36315131  0.42326415  0.37220876    -0.39150
N1251       N  0.38723456  0.31097341  0.29410232    -0.38600
N1252       N  0.41964873  0.45765426  0.32541360    -0.38600
C1253       C  0.46622028  0.20571150  0.08256528    -0.05270
C1254       C  0.46910620  0.20295698  0.05245572    -0.02380
C1255       C  0.45361096  0.21782660  0.03362630     0.02610
C1256       C  0.43519306  0.23559241  0.04489483    -0.05270
C1257       C  0.43225279  0.23828708  0.07495484    -0.02370
C1258       C  0.44753336  0.22327310  0.09375886     0.02600
C1259       C  0.48777363  0.18458634  0.04089660     0.37250
C1260       C  0.41348050  0.25657848  0.08651669     0.37240
C1261       C  0.44441695  0.22668028  0.12469048     0.35670
C1262       C  0.45745733  0.21553407  0.00264345     0.35670
N1263       N  0.44150022  0.22976864  0.14925512    -0.39150
N1264       N  0.46060302  0.21358286  0.47805894    -0.39150
N1265       N  0.39855994  0.27122267  0.09568686    -0.38600
N1266       N  0.50271136  0.16997006  0.03170260    -0.38600
C1267       C  0.43676466  0.24254998  0.33302865    -0.05270
C1268       C  0.43084133  0.21672979  0.32526915    -0.02380
C1269       C  0.44691809  0.20258018  0.30513902     0.02610
C1270       C  0.47004356  0.21351073  0.29330914    -0.05270
C1271       C  0.47638362  0.23890003  0.30256622    -0.02370
C1272       C  0.45953117  0.25336587  0.32079941     0.02600
C1273       C  0.40861034  0.20445223  0.33866411     0.37250
C1274       C  0.50161303  0.24995269  0.29593848     0.37240
C1275       C  0.46631978  0.27978696  0.32754511     0.35670
C1276       C  0.43961158  0.17672980  0.29677654     0.35670
N1277       N  0.47227480  0.30079886  0.33241775    -0.39150
N1278       N  0.43376404  0.15603119  0.29016632    -0.39150
N1279       N  0.52167320  0.25961813  0.29260067    -0.38600
N1280       N  0.39087661  0.19463725  0.34949183    -0.38600
C1281       C  0.79143409  0.24105245  0.37601650    -0.05270
C1282       C  0.77281553  0.22291482  0.36588672    -0.02380
C1283       C  0.74713935  0.22301443  0.37695357     0.02610
C1284       C  0.73958571  0.24100361  0.39806165    -0.05270
C1285       C  0.75828659  0.25721805  0.41041114    -0.02370
C1286       C  0.78422424  0.25678618  0.40022391     0.02600
C1287       C  0.77992709  0.20298743  0.34537010     0.37250
C1288       C  0.75059699  0.27486682  0.43333986     0.37240
C1289       C  0.80297076  0.27219519  0.41590222     0.35670
C1290       C  0.72842691  0.20401374  0.36743943     0.35670
N1291       N  0.81715000  0.28427741  0.42975316    -0.39150
N1292       N  0.71331676  0.18873892  0.36060241    -0.39150
N1293       N  0.74448199  0.28896782  0.45154570    -0.38600
N1294       N  0.78477471  0.18649610  0.32938406    -0.38600
C1295       C  0.63155582  0.18387614  0.04435195    -0.05270
C1296       C  0.63208866  0.15636846  0.04362194    -0.02380
C1297       C  0.61613144  0.14169164  0.06363253     0.02610
C1298       C  0.59577497  0.15434408  0.07925460    -0.05270
C1299       C  0.59443429  0.18133155  0.07538771    -0.02370
C1300       C  0.61643591  0.19481666  0.06643038     0.02600
C1301       C  0.64803130  0.14349203  0.02225306     0.37250
C1302       C  0.56981265  0.19472121  0.07309894     0.37240
C1303       C  0.61904305  0.22184423  0.07366167     0.35670
C1304       C  0.61844213  0.11400839  0.06524058     0.35670
N1305       N  0.62110260  0.24335515  0.07961590    -0.39150
N1306       N  0.62032165  0.09182125  0.06656284    -0.39150
N1307       N  0.55041969  0.20559540  0.06967890    -0.38600
N1308       N  0.66083390  0.13323033  0.00510326    -0.38600
C1309       C  0.62930698  0.20188333  0.31836672    -0.05270
C1310       C  0.60409181  0.21007875  0.31083265    -0.02380
C1311       C  0.58539972  0.19189634  0.30276021     0.02610
C1312       C  0.59334580  0.16733260  0.29305870    -0.05270
C1313       C  0.61976728  0.16011636  0.29614715    -0.02370
C1314       C  0.63731445  0.17683298  0.31024836     0.02600
C1315       C  0.59739664  0.23717069  0.30975686     0.37250
C1316       C  0.62862779  0.13510469  0.28604991     0.37240
C1317       C  0.66391493  0.16867904  0.31487860     0.35670
C1318       C  0.55813085  0.19841013  0.30598567     0.35670
N1319       N  0.68508751  0.16148248  0.31759440    -0.39150
N1320       N  0.53637458  0.20319554  0.30963759    -0.39150
N1321       N  0.63573302  0.11519891  0.27789992    -0.38600
N1322       N  0.59174472  0.25870567  0.30802449    -0.38600
C1323       C  0.57901191  0.31922076  0.04135782    -0.05270
C1324       C  0.58678592  0.31922585  0.07052847    -0.02380
C1325       C  0.57328439  0.33447947  0.09118600     0.02610
C1326       C  0.55095167  0.34892999  0.08316706    -0.05270
C1327       C  0.54484879  0.35077945  0.05352959    -0.02370
C1328       C  0.56020897  0.33760492  0.03274242     0.02600
C1329       C  0.61061541  0.30622813  0.07865073     0.37250
C1330       C  0.52355864  0.36714774  0.04421148     0.37240
C1331       C  0.55945855  0.34591223  0.00295417     0.35670
C1332       C  0.58319956  0.33586865  0.12039198     0.35670
N1333       N  0.55995197  0.35378500  0.97959450    -0.39150
N1334       N  0.59200497  0.33711430  0.14331930    -0.39150
N1335       N  0.50642022  0.38000548  0.03675393    -0.38600
N1336       N  0.63015484  0.29693665  0.08539740    -0.38600
C1337       C  0.56838012  0.36382465  0.29126724    -0.05270
C1338       C  0.58863802  0.34681060  0.28184217    -0.02380
C1339       C  0.60364316  0.33225086  0.30190858     0.02610
C1340       C  0.60016321  0.33565407  0.33184161    -0.05270
C1341       C  0.58350577  0.35618573  0.34095708    -0.02370
C1342       C  0.56702790  0.36932198  0.32108712     0.02600
C1343       C  0.59504069  0.34447284  0.25148981     0.37250
C1344       C  0.58339872  0.36421838  0.37093115     0.37240
C1345       C  0.54751652  0.38726243  0.33166824     0.35670
C1346       C  0.62175400  0.31279642  0.29164962     0.35670
N1347       N  0.53185148  0.40149275  0.34010224    -0.39150
N1348       N  0.63619593  0.29726363  0.28343174    -0.39150
N1349       N  0.58334385  0.37181915  0.39445336    -0.38600
N1350       N  0.60201711  0.34214931  0.22781701    -0.38600
C1351       C  0.53022720  0.27577070  0.45956631    -0.05270
C1352       C  0.52349042  0.27711981  0.48941960    -0.02380
C1353       C  0.51371551  0.30041521  0.50056917     0.02610
C1354       C  0.50454425  0.31849753  0.48103446    -0.05270
C1355       C  0.51790224  0.32103967  0.45513149    -0.02370
C1356       C  0.52657785  0.29817255  0.44206272     0.02600
C1357       C  0.52063135  0.25412329  0.00663531     0.37250
C1358       C  0.51459962  0.34467654  0.43884687     0.37240
C1359       C  0.52693048  0.29770270  0.41078013     0.35670
C1360       C  0.50534494  0.30333833  0.03007441     0.35670
N1361       N  0.52687510  0.29984767  0.38589605    -0.39150
N1362       N  0.49820030  0.30724033  0.05332693    -0.39150
N1363       N  0.51207362  0.36355438  0.42586371    -0.38600
N1364       N  0.51729249  0.23569915  0.02017785    -0.38600
C1365       C  0.54606488  0.05825079  0.24220418    -0.05270
C1366       C  0.52356318  0.04570245  0.25256046    -0.02380
C1367       C  0.52555609  0.02107157  0.26471884     0.02610
C1368       C  0.54982900  0.00838216  0.26552434    -0.05270
C1369       C  0.57239493  0.02074225  0.25522456    -0.02370
C1370       C  0.57056774  0.04580844  0.24370050     0.02600
C1371       C  0.49801219  0.05731216  0.24918327     0.37250
C1372       C  0.59724504  0.00742858  0.25589518     0.37240
C1373       C  0.59386631  0.05882696  0.23364692     0.35670
C1374       C  0.50249344  0.00891555  0.27668944     0.35670
N1375       N  0.61246095  0.06920513  0.22564073    -0.39150
N1376       N  0.48393475  0.99962604  0.28628931    -0.39150
N1377       N  0.61702778  0.99672123  0.25636756    -0.38600
N1378       N  0.47742936  0.06602819  0.24635031    -0.38600
C1379       C  0.47327695  0.55298716  0.26131366    -0.05270
C1380       C  0.44974226  0.54171993  0.25199221    -0.02380
C1381       C  0.45001210  0.51713737  0.23866936     0.02610
C1382       C  0.47391028  0.50417203  0.23398070    -0.05270
C1383       C  0.49743813  0.51619494  0.24200871    -0.02370
C1384       C  0.49704228  0.53985815  0.25668651     0.02600
C1385       C  0.42539091  0.55549471  0.25583594     0.37250
C1386       C  0.52230034  0.50459706  0.23435377     0.37240
C1387       C  0.52114637  0.54995569  0.26843544     0.35670
C1388       C  0.42574296  0.50501694  0.23044842     0.35670
N1389       N  0.54039151  0.55754792  0.27815045    -0.39150
N1390       N  0.40632565  0.49540041  0.22390586    -0.39150
N1391       N  0.54216151  0.49565246  0.22794854    -0.38600
N1392       N  0.40595849  0.56652194  0.25883731    -0.38600
C1393       C  0.51434318  0.75601868  0.38404628    -0.05270
C1394       C  0.49499689  0.77495350  0.38528794    -0.02380
C1395       C  0.50101857  0.79912506  0.37511283     0.02610
C1396       C  0.52687502  0.80495980  0.36855524    -0.05270
C1397       C  0.54707773  0.78698037  0.37177009    -0.02370
C1398       C  0.54078462  0.76222860  0.38033124     0.02600
C1399       C  0.46805099  0.76924551  0.39207618     0.37250
C1400       C  0.57367704  0.79301245  0.36357289     0.37240
C1401       C  0.56068370  0.74223579  0.38070469     0.35670
C1402       C  0.48004846  0.81663396  0.36822888     0.35670
N1403       N  0.57661141  0.72643085  0.38074053    -0.39150
N1404       N  0.46224934  0.82871231  0.36135706    -0.39150
N1405       N  0.59497638  0.79688936  0.35661034    -0.38600
N1406       N  0.44605489  0.76716907  0.39684348    -0.38600
C1407       C  0.42708247  0.84042717  0.45672456    -0.05270
C1408       C  0.44810484  0.85503734  0.46789835    -0.02380
C1409       C  0.46440845  0.86957402  0.44921969     0.02610
C1410       C  0.45902932  0.87105353  0.41935890    -0.05270
C1411       C  0.43532129  0.85989528  0.40939963    -0.02370
C1412       C  0.42063703  0.84324799  0.42742973     0.02600
C1413       C  0.45336675  0.85491294  0.49861451     0.37250
C1414       C  0.42526684  0.86545337  0.38089008     0.37240
C1415       C  0.39870080  0.82905180  0.41587720     0.35670
C1416       C  0.48579488  0.88435224  0.46103922     0.35670
N1417       N  0.38129651  0.81756104  0.40670522    -0.39150
N1418       N  0.50259159  0.89651323  0.47051371    -0.39150
N1419       N  0.41621451  0.86911030  0.35840877    -0.38600
N1420       N  0.45762925  0.85539691  0.02313818    -0.38600
C1421       C  0.47285110  0.85649180  0.20777563    -0.05270
C1422       C  0.46262892  0.83076792  0.21074480    -0.02380
C1423       C  0.44658313  0.81919765  0.18927804     0.02610
C1424       C  0.44326551  0.83059880  0.16194454    -0.05270
C1425       C  0.45419649  0.85554584  0.15790751    -0.02370
C1426       C  0.46779195  0.86870748  0.18075815     0.02600
C1427       C  0.47025438  0.81409671  0.23435367     0.37250
C1428       C  0.45086089  0.86808069  0.13019950     0.37240
C1429       C  0.47655050  0.89484401  0.17601419     0.35670
C1430       C  0.43417789  0.79460817  0.19521560     0.35670
N1431       N  0.48328565  0.91580066  0.17198531    -0.39150
N1432       N  0.42400211  0.77526495  0.20034841    -0.39150
N1433       N  0.44817760  0.87804780  0.10803888    -0.38600
N1434       N  0.47599621  0.79939257  0.25198526    -0.38600
C1435       C  0.37243243  0.68804076  0.45392400    -0.05270
C1436       C  0.37815718  0.69678644  0.42584866    -0.02380
C1437       C  0.39894017  0.68517043  0.41078965     0.02610
C1438       C  0.40512511  0.65863496  0.41425747    -0.05270
C1439       C  0.39384762  0.64670136  0.43901547    -0.02370
C1440       C  0.37919304  0.66186581  0.45979487     0.02600
C1441       C  0.36896851  0.72195402  0.41664731     0.37250
C1442       C  0.40011770  0.62009618  0.44502149     0.37240
C1443       C  0.37254874  0.65114403  0.48767324     0.35670
C1444       C  0.42015388  0.70243170  0.40545530     0.35670
N1445       N  0.36715215  0.64257499  0.50998263    -0.39150
N1446       N  0.43831665  0.71541364  0.40491820    -0.39150
N1447       N  0.40507218  0.59875751  0.44974810    -0.38600
N1448       N  0.36177609  0.74206070  0.40936140    -0.38600
C1449       C  0.41146398  0.70095696  0.16797512    -0.05270
C1450       C  0.43813477  0.70462923  0.17384373    -0.02380
C1451       C  0.45227371  0.68557508  0.18844729     0.02610
C1452       C  0.43914836  0.66509805  0.20225620    -0.05270
C1453       C  0.41213082  0.66182726  0.19733539    -0.02370
C1454       C  0.39860120  0.67916354  0.17925912     0.02600
C1455       C  0.45159517  0.72794620  0.16518288     0.37250
C1456       C  0.39841349  0.64022891  0.21010995     0.37240
C1457       C  0.37131457  0.67498823  0.17278070     0.35670
C1458       C  0.48044433  0.68719198  0.18859783     0.35670
N1459       N  0.34954805  0.67169381  0.16758100    -0.39150
N1460       N  0.50290577  0.68830727  0.18758916    -0.39150
N1461       N  0.38743266  0.62302084  0.22030588    -0.38600
N1462       N  0.46344582  0.74621257  0.15952416    -0.38600
C1463       C  0.58285037  0.72585261  0.46555213    -0.05270
C1464       C  0.59104217  0.70027088  0.45870077    -0.02380
C1465       C  0.57522099  0.68358396  0.44137560     0.02610
C1466       C  0.54969448  0.69101941  0.43267057    -0.05270
C1467       C  0.54116465  0.71578001  0.44178625    -0.02370
C1468       C  0.55868919  0.73376245  0.45386634     0.02600
C1469       C  0.61664399  0.69149296  0.46738377     0.37250
C1470       C  0.51399573  0.72300778  0.44017346     0.37240
C1471       C  0.55324113  0.76079027  0.44945198     0.35670
C1472       C  0.58522649  0.65843224  0.43338275     0.35670
N1473       N  0.54937619  0.78217303  0.44395523    -0.39150
N1474       N  0.59337396  0.63840190  0.42701149    -0.39150
N1475       N  0.49208380  0.72828811  0.44012083    -0.38600
N1476       N  0.63713981  0.68440907  0.47405435    -0.38600
C1477       C  0.55976164  0.70347158  0.21437373    -0.05270
C1478       C  0.55269572  0.72947435  0.20902149    -0.02380
C1479       C  0.57005422  0.74687772  0.19563331     0.02610
C1480       C  0.59295307  0.73813483  0.18124204    -0.05270
C1481       C  0.59938310  0.71157164  0.18449561    -0.02370
C1482       C  0.58355073  0.69471890  0.20201031     0.02600
C1483       C  0.52660220  0.73844002  0.21600099     0.37250
C1484       C  0.62200102  0.70145037  0.16961387     0.37240
C1485       C  0.59167703  0.66845887  0.20722662     0.35670
C1486       C  0.56411115  0.77426566  0.19727421     0.35670
N1487       N  0.59811250  0.64742154  0.21144005    -0.39150
N1488       N  0.55928439  0.79601758  0.19880143    -0.39150
N1489       N  0.64007898  0.69336122  0.15764095    -0.38600
N1490       N  0.50567941  0.74582683  0.22034592    -0.38600
C1491       C  0.60071211  0.90417699  0.42424631    -0.05270
C1492       C  0.62488413  0.91245131  0.43643205    -0.02380
C1493       C  0.63948778  0.89525561  0.45537907     0.02610
C1494       C  0.63336322  0.86837195  0.45646859    -0.05270
C1495       C  0.61333688  0.86070330  0.43778239    -0.02370
C1496       C  0.59391061  0.87848340  0.43087675     0.02600
C1497       C  0.63295469  0.93882837  0.43243333     0.37250
C1498       C  0.61112100  0.83415129  0.42831214     0.37240
C1499       C  0.56728142  0.87105428  0.43660829     0.35670
C1500       C  0.65998083  0.90513887  0.47352183     0.35670
N1501       N  0.54619342  0.86536459  0.44265008    -0.39150
N1502       N  0.67636123  0.91306764  0.48813608    -0.39150
N1503       N  0.60978154  0.81297631  0.42060571    -0.38600
N1504       N  0.63938544  0.95998981  0.42922942    -0.38600
C1505       C  0.62762727  0.86180641  0.17444943    -0.05270
C1506       C  0.64303573  0.87790402  0.19201669    -0.02380
C1507       C  0.63103495  0.89706164  0.20931669     0.02610
C1508       C  0.60380613  0.90135692  0.20731896    -0.05270
C1509       C  0.58995811  0.88883097  0.18523325    -0.02370
C1510       C  0.60063786  0.86699960  0.17210487     0.02600
C1511       C  0.67103750  0.87435346  0.19272046     0.37250
C1512       C  0.56446435  0.89789498  0.17603444     0.37240
C1513       C  0.58267427  0.84996947  0.15750891     0.35670
C1514       C  0.64676641  0.91274796  0.22839606     0.35670
N1515       N  0.56642890  0.83758074  0.14721216    -0.39150
N1516       N  0.65937897  0.92532895  0.24351806    -0.39150
N1517       N  0.54429412  0.90512641  0.16842924    -0.38600
N1518       N  0.69338712  0.87151184  0.19319193    -0.38600
C1519       C  0.53150349  0.78250086  0.02587539    -0.05270
C1520       C  0.52026962  0.79817548  0.00414073    -0.02380
C1521       C  0.50467928  0.78620025  0.98340549     0.02610
C1522       C  0.49527714  0.76189380  0.99045801    -0.05270
C1523       C  0.51205948  0.74467679  0.00401211    -0.02370
C1524       C  0.52866774  0.75514316  0.02464781     0.02600
C1525       C  0.52000630  0.82605335  0.50645917     0.37250
C1526       C  0.50564623  0.71738814  0.00458822     0.37240
C1527       C  0.53777480  0.73796485  0.04712539     0.35670
C1528       C  0.49215024  0.80044985  0.46057309     0.35670
N1529       N  0.54313260  0.72325891  0.06488627    -0.39150
N1530       N  0.48237150  0.81149179  0.44183170    -0.39150
N1531       N  0.50073446  0.69564304  0.00511608    -0.38600
N1532       N  0.51975362  0.84826887  0.50851015    -0.38600
C1533       C  0.97279462  0.01406958  0.48472098    -0.05270
C1534       C  0.99651736  0.02678692  0.49062616    -0.02380
C1535       C  0.99643846  0.05146868  0.00343149     0.02610
C1536       C  0.97268377  0.06382452  0.01029747    -0.05270
C1537       C  0.94892889  0.05132471  0.00413524    -0.02370
C1538       C  0.94898762  0.02652921  0.49126744     0.02600
C1539       C  0.02114262  0.01450485  0.48346118     0.37250
C1540       C  0.92449208  0.06406650  0.01083205     0.37240
C1541       C  0.92457166  0.01344115  0.48588155     0.35670
C1542       C  0.02098181  0.06373986  0.01052885     0.35670
N1543       N  0.90508642  0.00296535  0.48163259    -0.39150
N1544       N  0.04056362  0.07342830  0.01629210    -0.39150
N1545       N  0.90500818  0.07427977  0.01618415    -0.38600
N1546       N  0.04078494  0.00473532  0.47778914    -0.38600
C1547       C  0.05179706  0.56009479  0.49752606    -0.05270
C1548       C  0.07578603  0.54725303  0.50219400    -0.02380
C1549       C  0.07626107  0.52261882  0.01552685     0.02610
C1550       C  0.05287055  0.51077953  0.02457519    -0.05270
C1551       C  0.02905327  0.52391234  0.02055458    -0.02370
C1552       C  0.02846878  0.54808044  0.50671014     0.02600
C1553       C  0.09990292  0.55928309  0.49312360     0.37250
C1554       C  0.00489590  0.51213575  0.03015878     0.37240
C1555       C  0.00343047  0.55947306  0.49982437     0.35670
C1556       C  0.10069980  0.50893943  0.01878584     0.35670
N1557       N  0.98326723  0.56798183  0.49407727    -0.39150
N1558       N  0.12018249  0.49794230  0.02131544    -0.39150
N1559       N  0.98564792  0.50277761  0.03783529    -0.38600
N1560       N  0.11917144  0.56886523  0.48587108    -0.38600
C1561       C  0.01829405  0.74945262  0.37216111    -0.05270
C1562       C  0.03882956  0.76608823  0.37921461    -0.02380
C1563       C  0.03290949  0.78980076  0.39103260     0.02610
C1564       C  0.00690264  0.79500151  0.39850551    -0.05270
C1565       C  0.98643468  0.77830328  0.39192678    -0.02370
C1566       C  0.99215933  0.75581955  0.37724439     0.02600
C1567       C  0.06593920  0.75822477  0.37636747     0.37250
C1568       C  0.95994679  0.78349013  0.40154235     0.37240
C1569       C  0.97127345  0.73864434  0.36927207     0.35670
C1570       C  0.05331270  0.80894984  0.39424564     0.35670
N1571       N  0.95375222  0.72575333  0.36356575    -0.39150
N1572       N  0.06987538  0.82397314  0.39558266    -0.39150
N1573       N  0.93881356  0.78686663  0.40947010    -0.38600
N1574       N  0.08758784  0.75231334  0.37413543    -0.38600
C1575       C  0.79181419  0.81546924  0.13485410    -0.05270
C1576       C  0.77903900  0.79161397  0.13148766    -0.02380
C1577       C  0.75463282  0.79031445  0.11768080     0.02610
C1578       C  0.74211716  0.81299550  0.10793868    -0.05270
C1579       C  0.75518806  0.83685870  0.11061546    -0.02370
C1580       C  0.78005032  0.83803930  0.12386989     0.02600
C1581       C  0.79077026  0.76828867  0.14284912     0.37250
C1582       C  0.74281886  0.86026384  0.10047888     0.37240
C1583       C  0.79364068  0.86239814  0.12608195     0.35670
C1584       C  0.74277472  0.76535169  0.11265895     0.35670
N1585       N  0.80460116  0.88179604  0.12777064    -0.39150
N1586       N  0.73359420  0.74536947  0.10839489    -0.39150
N1587       N  0.73299721  0.87898451  0.09237745    -0.38600
N1588       N  0.79990626  0.74962906  0.15201760    -0.38600
C1589       C  0.93078580  0.71422619  0.28419289    -0.05270
C1590       C  0.91930374  0.70392822  0.30932161    -0.02380
C1591       C  0.93286884  0.68551337  0.32645370     0.02610
C1592       C  0.95889355  0.67801152  0.31938974    -0.05270
C1593       C  0.96893238  0.68622303  0.29235144    -0.02370
C1594       C  0.95520108  0.70435308  0.27521295     0.02600
C1595       C  0.89378590  0.71309087  0.31812589     0.37250
C1596       C  0.99322491  0.67542288  0.28165284     0.37240
C1597       C  0.96656203  0.71295591  0.24828606     0.35670
C1598       C  0.92012098  0.67573348  0.35212804     0.35670
N1599       N  0.97622603  0.71939377  0.22689812    -0.39150
N1600       N  0.90921726  0.66826488  0.37235815    -0.39150
N1601       N  0.01259833  0.66676768  0.27318386    -0.38600
N1602       N  0.87346793  0.72055450  0.32511694    -0.38600
C1603       C  0.94537221  0.74518719  0.08275613    -0.05270
C1604       C  0.94170607  0.71817117  0.07956682    -0.02380
C1605       C  0.95501468  0.70361258  0.05741540     0.02610
C1606       C  0.97286954  0.71552458  0.03796640    -0.05270
C1607       C  0.97688537  0.74254350  0.04194003    -0.02370
C1608       C  0.96309611  0.75704079  0.06344341     0.02600
C1609       C  0.92420230  0.70521586  0.09935269     0.37250
C1610       C  0.99694312  0.75548850  0.02540103     0.37240
C1611       C  0.96749007  0.78455714  0.06593667     0.35670
C1612       C  0.94994887  0.67631458  0.05455767     0.35670
N1613       N  0.97088788  0.80653073  0.06779476    -0.39150
N1614       N  0.94582361  0.65448908  0.05238601    -0.39150
N1615       N  0.01347962  0.76573983  0.01291578    -0.38600
N1616       N  0.91019458  0.69488551  0.11517289    -0.38600
C1617       C  0.88261471  0.86549845  0.30269275    -0.05270
C1618       C  0.90009417  0.85674856  0.32379705    -0.02380
C1619       C  0.92099516  0.87229631  0.33177819     0.02610
C1620       C  0.91761755  0.89908476  0.33510569    -0.05270
C1621       C  0.89622205  0.90961791  0.31934821    -0.02370
C1622       C  0.88060779  0.89305180  0.30070231     0.02600
C1623       C  0.89610144  0.83268312  0.33889357     0.37250
C1624       C  0.89231995  0.93716838  0.31952205     0.37240
C1625       C  0.86296595  0.90429901  0.27999650     0.35670
C1626       C  0.94653544  0.86238703  0.32483897     0.35670
N1627       N  0.84892103  0.91334592  0.26332239    -0.39150
N1628       N  0.96700403  0.85525898  0.31810873    -0.39150
N1629       N  0.88925699  0.95926224  0.31965133    -0.38600
N1630       N  0.89257879  0.81376292  0.35152350    -0.38600
C1631       C  0.89682225  0.88370110  0.09612867    -0.05270
C1632       C  0.88633773  0.88014466  0.06846238    -0.02380
C1633       C  0.89608118  0.89455010  0.04510596     0.02610
C1634       C  0.91812979  0.91080049  0.04902336    -0.05270
C1635       C  0.92516366  0.91768037  0.07731449    -0.02370
C1636       C  0.91376829  0.90487220  0.10096256     0.02600
C1637       C  0.86540680  0.86173149  0.06406833     0.37250
C1638       C  0.94405302  0.93800000  0.08208450     0.37240
C1639       C  0.92019677  0.91349692  0.12982878     0.35670
C1640       C  0.88305872  0.89189269  0.01760147     0.35670
N1641       N  0.92556658  0.92128461  0.15246279    -0.39150
N1642       N  0.87110678  0.88890678  0.49676888    -0.39150
N1643       N  0.95906255  0.95423829  0.08589443    -0.38600
N1644       N  0.84872749  0.84711900  0.06050206    -0.38600
C1645       C  0.24063845  0.75044004  0.14473680    -0.05270
C1646       C  0.25289420  0.72677912  0.13797181    -0.02380
C1647       C  0.27828580  0.72652644  0.12597264     0.02610
C1648       C  0.29143960  0.74992798  0.12053782    -0.05270
C1649       C  0.27923588  0.77352357  0.12767589    -0.02370
C1650       C  0.25422218  0.77373912  0.14023970     0.02600
C1651       C  0.23906694  0.70277626  0.14242258     0.37250
C1652       C  0.29168236  0.79778246  0.12048382     0.37240
C1653       C  0.24264139  0.79806723  0.14905708     0.35670
C1654       C  0.29089405  0.70221910  0.11923910     0.35670
N1655       N  0.23361476  0.81748496  0.15630494    -0.39150
N1656       N  0.30098077  0.68282352  0.11389491    -0.39150
N1657       N  0.30126878  0.81722072  0.11448503    -0.38600
N1658       N  0.22802045  0.68361710  0.14593423    -0.38600
C1659       C  0.05233375  0.86066607  0.33314732    -0.05270
C1660       C  0.04540223  0.83487735  0.32652203    -0.02380
C1661       C  0.06272819  0.81813259  0.31193478     0.02610
C1662       C  0.08541833  0.82746324  0.29809797    -0.05270
C1663       C  0.09217072  0.85375440  0.30369269    -0.02370
C1664       C  0.07616082  0.86982967  0.32156514     0.02600
C1665       C  0.02003258  0.82487031  0.33386308     0.37250
C1666       C  0.11609304  0.86451781  0.29224125     0.37240
C1667       C  0.08368603  0.89636275  0.32663752     0.35670
C1668       C  0.05739300  0.79085208  0.31312961     0.35670
N1669       N  0.08971908  0.91755083  0.33053472    -0.39150
N1670       N  0.05284003  0.76915183  0.31500319    -0.39150
N1671       N  0.13517043  0.87342861  0.28343344    -0.38600
N1672       N  0.99977158  0.81622023  0.33857915    -0.38600
C1673       C  0.09573644  0.84168417  0.08540299    -0.05270
C1674       C  0.08096456  0.86399840  0.09329583    -0.02380
C1675       C  0.06425429  0.87699500  0.07312031     0.02610
C1676       C  0.06085713  0.86748502  0.04467649    -0.05270
C1677       C  0.07715127  0.84595604  0.03659970    -0.02370
C1678       C  0.09539196  0.83467749  0.05610826     0.02600
C1679       C  0.08328484  0.87416381  0.12230476     0.37250
C1680       C  0.07427186  0.83291606  0.00914226     0.37240
C1681       C  0.11326419  0.81482485  0.04614986     0.35670
C1682       C  0.04895125  0.89893457  0.08253425     0.35670
N1683       N  0.12772217  0.79925669  0.03803679    -0.39150
N1684       N  0.03669927  0.91644297  0.09009277    -0.39150
N1685       N  0.07291848  0.82036182  0.48852652    -0.38600
N1686       N  0.08508922  0.88314231  0.14511309    -0.38600
C1687       C  0.09498356  0.67819274  0.03901908    -0.05270
C1688       C  0.12024030  0.66981248  0.04652957    -0.02380
C1689       C  0.13604911  0.68540949  0.06436537     0.02610
C1690       C  0.12771300  0.71051063  0.07220985    -0.05270
C1691       C  0.10343777  0.71951427  0.06205723    -0.02370
C1692       C  0.08626749  0.70248541  0.04848027     0.02600
C1693       C  0.12933781  0.64468582  0.03714638     0.37250
C1694       C  0.09494341  0.74587580  0.06633086     0.37240
C1695       C  0.05921697  0.70989906  0.04549280     0.35670
C1696       C  0.16095550  0.67578384  0.07439424     0.35670
N1697       N  0.03757198  0.71588930  0.04446345    -0.39150
N1698       N  0.18079473  0.66807948  0.08248246    -0.39150
N1699       N  0.08689553  0.76658449  0.06890253    -0.38600
N1700       N  0.13654295  0.62459829  0.02969480    -0.38600
C1701       C  0.13397701  0.67919434  0.28685741    -0.05270
C1702       C  0.11628003  0.65989041  0.27770022    -0.02380
C1703       C  0.10338573  0.64354878  0.29794262     0.02610
C1704       C  0.10821521  0.64543505  0.32804052    -0.05270
C1705       C  0.12904294  0.66181456  0.33656181    -0.02370
C1706       C  0.14106730  0.67913604  0.31640602     0.02600
C1707       C  0.10997031  0.65774794  0.24730701     0.37250
C1708       C  0.13750059  0.66186791  0.36630244     0.37240
C1709       C  0.15975968  0.69797059  0.32637825     0.35670
C1710       C  0.08414685  0.62528502  0.28777167     0.35670
N1711       N  0.17469603  0.71305036  0.33429708    -0.39150
N1712       N  0.06877217  0.61071759  0.27968651    -0.39150
N1713       N  0.14497842  0.66181173  0.38984821    -0.38600
N1714       N  0.10479184  0.65556325  0.22311480    -0.38600
C1715       C  0.99774025  0.81294127  0.26031952    -0.05270
C1716       C  0.00459716  0.78946213  0.27288806    -0.02380
C1717       C  0.02168749  0.77355417  0.25735759     0.02610
C1718       C  0.03262660  0.78308297  0.23132935    -0.05270
C1719       C  0.02975961  0.80983543  0.22447745    -0.02370
C1720       C  0.01657974  0.82558803  0.24420983     0.02600
C1721       C  0.98774724  0.77828746  0.29463539     0.37250
C1722       C  0.03161852  0.81956392  0.19519417     0.37240
C1723       C  0.01339659  0.85294500  0.23887469     0.35670
C1724       C  0.02290892  0.74659140  0.26509399     0.35670
N1725       N  0.01096139  0.87470876  0.23416532    -0.39150
N1726       N  0.02280705  0.72529129  0.27229615    -0.39150
N1727       N  0.03140252  0.82795916  0.17201820    -0.38600
N1728       N  0.97458290  0.76864161  0.31179266    -0.38600
Zr1729     Zr  0.15150529  0.77655551  0.63802792     2.17510
O1730       O  0.17823304  0.80467356  0.60797128    -0.51260
O1731       O  0.14310722  0.74853664  0.59645195    -0.74470
O1732       O  0.19730569  0.76436691  0.63884567    -0.81250
O1733       O  0.08593780  0.81509630  0.62500153    -0.82990
O1734       O  0.20719836  0.74023238  0.67871900    -0.78620
O1735       O  0.12774754  0.81186683  0.60924284    -0.90260
O1736       O  0.14289528  0.71131454  0.62005017    -0.76220
O1737       O  0.15496993  0.73454286  0.66082019    -0.85710
O1738       O  0.10942368  0.75811374  0.63809843    -0.85400
O1739       O  0.16749922  0.78018385  0.68773800    -0.72150
O1740       O  0.12706602  0.80508043  0.66749955    -0.84290
Zr1741     Zr  0.10105985  0.75141713  0.73686549     2.26420
Zr1742     Zr  0.16905600  0.73787980  0.71056133     2.06270
Zr1743     Zr  0.08456139  0.78716192  0.66589273     2.10050
Zr1744     Zr  0.11274350  0.71649987  0.65951593     1.78760
O1745       O  0.08173694  0.83155544  0.68308234    -0.93090
O1746       O  0.13158033  0.67374340  0.66585487    -0.40900
O1747       O  0.08704691  0.74532240  0.68766827    -0.77530
O1748       O  0.12603595  0.72129139  0.70832814    -0.96220
O1749       O  0.14428685  0.76753531  0.73923608    -0.89520
O1750       O  0.09812307  0.79289338  0.71490655    -0.92370
C1751       C  0.13991011  0.72407399  0.59690339     1.01380
C1752       C  0.10430271  0.82196505  0.60812016     1.14320
C1753       C  0.21313581  0.75142719  0.65473404     1.05100
O1754       O  0.19666039  0.69970980  0.71120403    -0.94520
O1755       O  0.15734866  0.70542629  0.74988727    -0.90270
O1756       O  0.11859553  0.71860816  0.76868498    -0.83410
C1757       C  0.13781520  0.70288547  0.76782532     1.11740
O1758       O  0.17638819  0.83704113  0.69915790    -0.96500
Zr1759     Zr  0.14172944  0.80895105  0.71683125     1.88940
O1760       O  0.09276493  0.78702888  0.77185860    -0.73140
O1761       O  0.19804048  0.75735226  0.74583491    -0.52410
O1762       O  0.17452122  0.81007009  0.75471992    -0.97090
O1763       O  0.12953546  0.85425383  0.71186111    -0.54300
O1764       O  0.11690329  0.82166965  0.75963066    -0.73660
C1765       C  0.09975780  0.81078736  0.77572726     0.98680
O1766       O  0.08158052  0.72329289  0.77291844    -0.62480
O1767       O  0.05171864  0.78505412  0.62776089    -0.58400
O1768       O  0.05734958  0.74587223  0.71884456    -0.93970
O1769       O  0.04405012  0.77119613  0.68407039    -0.92390
O1770       O  0.08017236  0.70951070  0.62221890    -0.92750
O1771       O  0.07933079  0.68546440  0.67340911    -0.91530
C1772       C  0.04381262  0.76504014  0.71047222     1.17530
H1773       H  0.10152420  0.75728806  0.61940355     0.33470
H1774       H  0.12424579  0.70402752  0.71556497     0.44320
H1775       H  0.08535300  0.80377921  0.72412268     0.37850
H1776       H  0.18491583  0.78714852  0.68731066     0.34330
H1777       H  0.12994256  0.66537702  0.64669842     0.26110
H1778       H  0.20661038  0.74253821  0.75536792     0.32050
H1779       H  0.17034096  0.82568488  0.76615851     0.37960
H1780       H  0.08494551  0.69275991  0.61338569     0.32420
H1781       H  0.05026019  0.76649515  0.62306443     0.31300
H1782       H  0.09519158  0.84108568  0.67220207     0.32980
H1783       H  0.14051486  0.86365988  0.72586204     0.31950
H1784       H  0.08145742  0.67045242  0.66038242     0.35950
H1785       H  0.07079430  0.73439281  0.78538521     0.28680
H1786       H  0.18851403  0.79315244  0.59520868     0.32910
H1787       H  0.18430357  0.84500267  0.71646969     0.35760
H1788       H  0.03463760  0.78967131  0.63623401     0.28370
H1789       H  0.06935833  0.71212285  0.76217408     0.41240
H1790       H  0.18950330  0.68844581  0.69591089     0.31300
H1791       H  0.15047598  0.67684149  0.66803259     0.38920
H1792       H  0.11173272  0.85572498  0.71996668     0.30770
H1793       H  0.21198088  0.76539727  0.73410339     0.30830
H1794       H  0.19103403  0.81251093  0.62124587     0.31100
Zr1795     Zr  0.88396602  0.80040835  0.63943475     2.17510
O1796       O  0.86588304  0.78094739  0.59584012    -0.51260
O1797       O  0.89274985  0.83993601  0.61180870    -0.74470
O1798       O  0.83717830  0.80761597  0.63367767    -0.81250
O1799       O  0.94908169  0.76220132  0.63091496    -0.82990
O1800       O  0.81926135  0.82322130  0.67550478    -0.78620
O1801       O  0.91168957  0.77187734  0.60705529    -0.90260
O1802       O  0.89087426  0.87165901  0.64476209    -0.76220
O1803       O  0.87462012  0.83647335  0.67061857    -0.85710
O1804       O  0.92512317  0.81857447  0.65141403    -0.85400
O1805       O  0.86008323  0.78568336  0.68184061    -0.72150
O1806       O  0.90615357  0.76658477  0.66453744    -0.84290
Zr1807     Zr  0.91359511  0.80100749  0.74922477     2.26420
Zr1808     Zr  0.85237694  0.82255134  0.71380592     2.06270
Zr1809     Zr  0.94724257  0.78542979  0.67716790     2.10050
Zr1810     Zr  0.91569536  0.85363111  0.68320791     1.78760
O1811       O  0.97826677  0.75009495  0.67874996    -0.93090
O1812       O  0.89449504  0.89133367  0.70480179    -0.40900
O1813       O  0.93647408  0.81961199  0.70845178    -0.77530
O1814       O  0.89516071  0.83769625  0.72536780    -0.96220
O1815       O  0.87169779  0.78582561  0.73758338    -0.89520
O1816       O  0.92421476  0.76698298  0.71645775    -0.92370
C1817       C  0.89263962  0.86398166  0.61879706     1.01380
C1818       C  0.93430597  0.76049052  0.60857923     1.14320
C1819       C  0.81791373  0.81607505  0.64882629     1.05100
O1820       O  0.82316473  0.85953272  0.71505387    -0.94520
O1821       O  0.85909097  0.85077214  0.75805275    -0.90270
O1822       O  0.88335746  0.82275129  0.78252812    -0.83410
C1823       C  0.87329111  0.84533956  0.78040352     1.11740
O1824       O  0.85117766  0.72688156  0.67623943    -0.96500
Zr1825     Zr  0.88215383  0.75078027  0.70567020     1.88940
O1826       O  0.92265154  0.75850527  0.77182068    -0.73140
O1827       O  0.81974481  0.79956602  0.74191410    -0.52410
O1828       O  0.84637755  0.73977642  0.73808477    -0.97090
O1829       O  0.89746398  0.71000704  0.68567086    -0.54300
O1830       O  0.90277503  0.72742347  0.74562135    -0.73660
C1831       C  0.91728037  0.73467523  0.76666781     0.98680
O1832       O  0.93271386  0.80034833  0.79700295    -0.62480
O1833       O  0.98254905  0.80703152  0.65184018    -0.57280
O1834       O  0.95403757  0.82128101  0.75280905    -0.93970
O1835       O  0.97458255  0.79558571  0.72029944    -0.92390
O1836       O  0.95056176  0.86861555  0.65136803    -0.92750
O1837       O  0.94693375  0.88052802  0.70884366    -0.91530
C1838       C  0.97409557  0.80993257  0.74347930     1.17530
H1839       H  0.93465664  0.82370705  0.63434301     0.33470
H1840       H  0.89805838  0.85267733  0.73715961     0.44320
H1841       H  0.93641957  0.75428104  0.72317754     0.37850
H1842       H  0.84352566  0.77862767  0.67610932     0.34330
H1843       H  0.90545028  0.90642881  0.70025650     0.26110
H1844       H  0.80646262  0.81278364  0.74663037     0.32050
H1845       H  0.84998520  0.72186456  0.74424992     0.37960
H1846       H  0.96693822  0.86745580  0.66248317     0.32420
H1847       H  0.98013869  0.82547063  0.65638497     0.31300
H1848       H  0.99374283  0.75652214  0.66820153     0.32980
H1849       H  0.89283227  0.69687452  0.70031314     0.31950
H1850       H  0.94757623  0.87321000  0.72858503     0.35950
H1851       H  0.93361141  0.81852692  0.80284165     0.28680
H1852       H  0.85722116  0.79508622  0.58518790     0.32910
H1853       H  0.84416061  0.71321364  0.68896646     0.35760
H1854       H  0.97841656  0.80553293  0.63102741     0.28370
H1855       H  0.91949016  0.79253779  0.80984283     0.41240
H1856       H  0.83250395  0.87306753  0.70410843     0.31300
H1857       H  0.87835926  0.89401896  0.69355626     0.38920
H1858       H  0.91668954  0.71116044  0.68656439     0.30770
H1859       H  0.81113177  0.78815672  0.72770729     0.30830
H1860       H  0.85161790  0.76955458  0.60247195     0.31100
Zr1861     Zr  0.02337781  0.64785524  0.98428875     2.17510
O1862       O  0.99228846  0.62800335  0.01735599    -0.51260
O1863       O  0.05544466  0.66103794  0.51993333    -0.74470
O1864       O  0.03772444  0.60377355  0.99485315    -0.81250
O1865       O  0.98813334  0.71346452  0.98858326    -0.82990
O1866       O  0.06061038  0.58697985  0.95662655    -0.78620
O1867       O  0.99606244  0.67786833  0.51562639    -0.90260
O1868       O  0.09093047  0.66194275  0.99192637    -0.76220
O1869       O  0.06497417  0.64294736  0.96025100    -0.85710
O1870       O  0.03743305  0.69032635  0.97273714    -0.85400
O1871       O  0.01918248  0.62160311  0.94075738    -0.72150
O1872       O  0.99047954  0.66347967  0.95193127    -0.84290
Zr1873     Zr  0.03972856  0.67351135  0.87218382     2.26420
Zr1874     Zr  0.06124338  0.61798256  0.91639193     2.06270
Zr1875     Zr  0.00569091  0.70581268  0.93989400     2.10050
Zr1876     Zr  0.07837315  0.68534292  0.94916978     1.78760
O1877       O  0.96252919  0.72305437  0.93001363    -0.93090
O1878       O  0.12437003  0.67426106  0.94572230    -0.40900
O1879       O  0.04675551  0.70062911  0.91561239    -0.77530
O1880       O  0.07358609  0.66144671  0.90552669    -0.96220
O1881       O  0.02694968  0.63107324  0.88427632    -0.89520
O1882       O  0.99837818  0.67958173  0.89820342    -0.92370
C1883       C  0.07981566  0.66512303  0.51627895     1.01380
C1884       C  0.98640835  0.70100528  0.51260898     1.14320
C1885       C  0.05043004  0.58547834  0.98215375     1.05100
O1886       O  0.10236479  0.59537680  0.92283604    -0.94520
O1887       O  0.09222617  0.62612977  0.87436863    -0.90270
O1888       O  0.06383466  0.64286185  0.84328682    -0.83410
C1889       C  0.08719431  0.63667477  0.84954027     1.11740
O1890       O  0.96380880  0.60193719  0.93416075    -0.96500
Zr1891     Zr  0.98589183  0.63698411  0.90883492     1.88940
O1892       O  0.00129329  0.67271211  0.84039280    -0.73140
O1893       O  0.04599099  0.58112831  0.88871262    -0.52410
O1894       O  0.98237982  0.59974358  0.87697218    -0.97090
O1895       O  0.94133126  0.64950980  0.92062158    -0.54300
O1896       O  0.96758915  0.65287300  0.86281244    -0.73660
C1897       C  0.97705922  0.66621218  0.84174249     0.98680
O1898       O  0.07151723  0.69737399  0.84326025    -0.62480
O1899       O  0.01611858  0.75129910  0.94477136    -0.57280
O1900       O  0.03461941  0.71344702  0.84765540    -0.93970
O1901       O  0.02215015  0.70881492  0.89161534    -0.92390
O1902       O  0.08129779  0.72382237  0.97919233    -0.92750
O1903       O  0.10669334  0.71722290  0.92683132    -0.91530
C1904       C  0.02450755  0.72323758  0.86981272     1.17530
H1905       H  0.03857675  0.70125607  0.98952885     0.33470
H1906       H  0.09034994  0.66418640  0.89671698     0.44320
H1907       H  0.98396976  0.68791741  0.88856017     0.37850
H1908       H  0.01372287  0.60453239  0.94632880     0.34330
H1909       H  0.13226691  0.68118100  0.96361507     0.26110
H1910       H  0.06126854  0.56950667  0.88753076     0.32050
H1911       H  0.96487568  0.60115249  0.86820403     0.37960
H1912       H  0.09840321  0.72232354  0.98886100     0.32420
H1913       H  0.00144291  0.75886605  0.95581851     0.31300
H1914       H  0.95945235  0.73617669  0.94519618     0.32980
H1915       H  0.93018218  0.63590811  0.91223675     0.31950
H1916       H  0.10865024  0.71133856  0.90656758     0.35950
H1917       H  0.08830788  0.69522382  0.85339645     0.28680
H1918       H  0.00193267  0.61499823  0.52878409     0.32910
H1919       H  0.95064887  0.59506831  0.92062106     0.35760
H1920       H  0.03108307  0.75173727  0.95818295     0.28370
H1921       H  0.07357961  0.68808030  0.82468622     0.41240
H1922       H  0.11326541  0.60755795  0.93394652     0.31300
H1923       H  0.12498484  0.65531668  0.94812454     0.38920
H1924       H  0.93968244  0.64727566  0.94180343     0.30770
H1925       H  0.03373303  0.57222360  0.90188858     0.30830
H1926       H  0.98051077  0.61799782  0.00476017     0.31100
Zr1927     Zr  0.99576578  0.92515585  0.99207824     2.17510
O1928       O  0.01757517  0.94973853  0.02987145    -0.51260
O1929       O  0.96050960  0.91805789  0.52779455    -0.74470
O1930       O  0.98585342  0.97093708  0.99017423    -0.81250
O1931       O  0.02751795  0.85896067  0.51092859    -0.82990
O1932       O  0.96248041  0.98157803  0.94981059    -0.78620
O1933       O  0.03203629  0.90120647  0.52061166    -0.90260
O1934       O  0.92562750  0.91871437  0.49948715    -0.76220
O1935       O  0.95507863  0.92873250  0.96607520    -0.85710
O1936       O  0.97723501  0.88349579  0.99066148    -0.85400
O1937       O  0.00227248  0.94210539  0.94283914    -0.72150
O1938       O  0.02795326  0.90302080  0.96424173    -0.84290
Zr1939     Zr  0.97783286  0.87814171  0.89212559     2.26420
Zr1940     Zr  0.96067003  0.94420036  0.91701983     2.06270
Zr1941     Zr  0.00939696  0.86117254  0.96387486     2.10050
Zr1942     Zr  0.93706086  0.88691383  0.96461065     1.78760
O1943       O  0.05602999  0.86044455  0.95562251    -0.93090
O1944       O  0.89722651  0.90520451  0.94376945    -0.40900
O1945       O  0.96891437  0.86231699  0.93948475    -0.77530
O1946       O  0.94450260  0.90103467  0.91677539    -0.96220
O1947       O  0.99336866  0.92103676  0.89081624    -0.89520
O1948       O  0.01794793  0.87588349  0.91664338    -0.92370
C1949       C  0.93561289  0.91725872  0.52433583     1.01380
C1950       C  0.03878992  0.87696871  0.52450433     1.14320
C1951       C  0.97341366  0.98700469  0.97418033     1.05100
O1952       O  0.91963821  0.96772444  0.91790314    -0.94520
O1953       O  0.93207257  0.93027862  0.87399454    -0.90270
O1954       O  0.96078159  0.90416113  0.85328526    -0.83410
C1955       C  0.93779821  0.91332246  0.85410044     1.11740
O1956       O  0.06288164  0.95194143  0.93292384    -0.96500
Zr1957     Zr  0.03403895  0.91829403  0.91500108     1.88940
O1958       O  0.01131101  0.87181105  0.85530345    -0.73140
O1959       O  0.97851084  0.97570441  0.88349525    -0.52410
O1960       O  0.03641406  0.95127011  0.87771182    -0.97090
O1961       O  0.07962464  0.90626791  0.92101646    -0.54300
O1962       O  0.04734546  0.89174892  0.87240914    -0.73660
C1963       C  0.03592818  0.87635573  0.85441052     0.98680
O1964       O  0.94208803  0.84870259  0.88194617    -0.62480
O1965       O  0.00250352  0.81914588  0.98602437    -0.57280
O1966       O  0.99054096  0.83486373  0.89178047    -0.93970
O1967       O  0.00805235  0.82385444  0.93531026    -0.92390
O1968       O  0.92685583  0.85674433  0.00337467    -0.92750
O1969       O  0.90694137  0.85136019  0.95676000    -0.91530
C1970       C  0.00095736  0.81941352  0.90956765     1.17530
H1971       H  0.97523457  0.87582619  0.00955993     0.33470
H1972       H  0.92827928  0.89840720  0.90691125     0.44320
H1973       H  0.02980124  0.86370414  0.90796036     0.37850
H1974       H  0.00916182  0.95934602  0.94414917     0.34330
H1975       H  0.88370884  0.89167912  0.94341179     0.26110
H1976       H  0.96421967  0.98827373  0.88067714     0.32050
H1977       H  0.05368913  0.94866980  0.86858745     0.37960
H1978       H  0.94015751  0.84297131  0.00171000     0.32420
H1979       H  0.01990742  0.81333480  0.99242128     0.31300
H1980       H  0.05888052  0.84521187  0.94322050     0.32980
H1981       H  0.08876724  0.91452628  0.90458337     0.31950
H1982       H  0.91008701  0.84589704  0.93654750     0.35950
H1983       H  0.94267438  0.83576727  0.89755919     0.28680
H1984       H  0.00363836  0.95920105  0.54027586     0.32910
H1985       H  0.05393903  0.96840048  0.92861913     0.35760
H1986       H  0.99267799  0.82258343  0.00408560     0.28370
H1987       H  0.92607961  0.85851978  0.88651346     0.41240
H1988       H  0.91045288  0.96112446  0.93521973     0.31300
H1989       H  0.89088090  0.91847320  0.95746830     0.38920
H1990       H  0.08041164  0.88763894  0.91651217     0.30770
H1991       H  0.99165037  0.98517350  0.89493747     0.30830
H1992       H  0.02778050  0.96315173  0.01972911     0.31100
Zr1993     Zr  0.65262795  0.78945113  0.61865942     2.17510
O1994       O  0.67933657  0.76558423  0.65296762    -0.51260
O1995       O  0.64376059  0.82071385  0.65759651    -0.74470
O1996       O  0.69850870  0.80072526  0.61540036    -0.81250
O1997       O  0.58842523  0.77031989  0.64594302    -0.82990
O1998       O  0.70866605  0.82006626  0.57241002    -0.78620
O1999       O  0.62933387  0.75648852  0.65055559    -0.90260
O2000       O  0.64458418  0.85417956  0.62827882    -0.76220
O2001       O  0.65636572  0.82899080  0.59072388    -0.85710
O2002       O  0.61106364  0.80937140  0.61716533    -0.85400
O2003       O  0.66761206  0.78054716  0.56919990    -0.72150
O2004       O  0.62751969  0.75752098  0.59399362    -0.84290
Zr2005     Zr  0.60022591  0.80473947  0.52008839     2.26420
Zr2006     Zr  0.66966160  0.82058390  0.54135827     2.06270
Zr2007     Zr  0.58548279  0.77698429  0.59542869     2.10050
Zr2008     Zr  0.61463098  0.84827712  0.58934047     1.78760
O2009       O  0.58759616  0.73022501  0.59364504    -0.93090
O2010       O  0.63242024  0.88601937  0.56449052    -0.40900
O2011       O  0.58709715  0.81657820  0.56837342    -0.77530
O2012       O  0.62653049  0.83810492  0.54126393    -0.96220
O2013       O  0.64345273  0.78844741  0.51774112    -0.89520
O2014       O  0.59802298  0.76575852  0.54706640    -0.92370
C2015       C  0.64005760  0.84472049  0.65292668     1.01380
C2016       C  0.60492588  0.75588583  0.65827824     1.14320
C2017       C  0.71457381  0.81146706  0.59777789     1.05100
O2018       O  0.69477773  0.86021765  0.53870985    -0.94520
O2019       O  0.65934436  0.84875662  0.49754199    -0.90270
O2020       O  0.61895626  0.83495613  0.98636239    -0.83410
C2021       C  0.63860949  0.84948841  0.98137349     1.11740
O2022       O  0.67477687  0.72104029  0.56400947    -0.96500
Zr2023     Zr  0.64107150  0.74922729  0.54453847     1.88940
O2024       O  0.59073480  0.76737619  0.98862801    -0.73140
O2025       O  0.69938384  0.79904014  0.50808815    -0.52410
O2026       O  0.67402896  0.74485575  0.50685010    -0.97090
O2027       O  0.62725172  0.70499559  0.55350937    -0.54300
O2028       O  0.61509808  0.73361327  0.50319938    -0.73660
C2029       C  0.59763562  0.74348905  0.98656186     0.98680
O2030       O  0.56996260  0.82101745  0.48453005    -0.62480
O2031       O  0.54776919  0.77189403  0.62745981    -0.57280
O2032       O  0.56070351  0.81239323  0.54661242    -0.93970
O2033       O  0.54369975  0.78307339  0.57437352    -0.92390
O2034       O  0.59767780  0.88707382  0.61264530    -0.92750
O2035       O  0.56876418  0.86025751  0.59098205    -0.91530
C2036       C  0.54434491  0.79437779  0.55032957     1.17530
H2037       H  0.60433273  0.81189409  0.63622606     0.33470
H2038       H  0.62421555  0.85417079  0.53136842     0.44320
H2039       H  0.58543683  0.75373608  0.53978261     0.37850
H2040       H  0.68492894  0.77331250  0.57011152     0.34330
H2041       H  0.61745766  0.89776576  0.56150528     0.26110
H2042       H  0.71076982  0.81297870  0.50079090     0.32050
H2043       H  0.66891433  0.72927366  0.49591314     0.37960
H2044       H  0.61309256  0.89624417  0.62024825     0.32420
H2045       H  0.53744292  0.78801694  0.62660169     0.31300
H2046       H  0.58009481  0.72445099  0.61228465     0.32980
H2047       H  0.63479554  0.69481313  0.53740557     0.31950
H2048       H  0.56467767  0.86590165  0.57105393     0.35950
H2049       H  0.57086428  0.83998553  0.48638158     0.28680
H2050       H  0.69037936  0.77844442  0.66288347     0.32910
H2051       H  0.68087548  0.71035243  0.54757909     0.35760
H2052       H  0.53662304  0.75823806  0.61913356     0.28370
H2053       H  0.57761904  0.81699271  0.46551909     0.41240
H2054       H  0.68597937  0.87203215  0.55244908     0.31300
H2055       H  0.64346517  0.89476359  0.57897944     0.38920
H2056       H  0.60828815  0.70488293  0.54975534     0.30770
H2057       H  0.71082343  0.78857490  0.52066194     0.30830
H2058       H  0.69142769  0.75516248  0.64105178     0.31100
Zr2059     Zr  0.38182838  0.77214961  0.61158960     2.17510
O2060       O  0.36190410  0.79770836  0.65007055    -0.51260
O2061       O  0.39643447  0.74035017  0.64703358    -0.74470
O2062       O  0.33611332  0.76124402  0.61995308    -0.81250
O2063       O  0.44644066  0.81199139  0.61448203    -0.82990
O2064       O  0.31893705  0.74089934  0.58053638    -0.78620
O2065       O  0.40958379  0.80317895  0.63988671    -0.90260
O2066       O  0.39585599  0.70399041  0.62079829    -0.76220
O2067       O  0.37421574  0.73215117  0.58621712    -0.85710
O2068       O  0.42353554  0.75459994  0.60094960    -0.85400
O2069       O  0.35685607  0.78043177  0.56794991    -0.72150
O2070       O  0.40185712  0.80393309  0.58142676    -0.84290
Zr2071     Zr  0.41153786  0.75844052  0.50303441     2.26420
Zr2072     Zr  0.35111352  0.74001807  0.54161698     2.06270
Zr2073     Zr  0.44380150  0.78545163  0.57096421     2.10050
Zr2074     Zr  0.41611179  0.71543541  0.57574001     1.78760
O2075       O  0.47398927  0.82149140  0.56881256    -0.93090
O2076       O  0.39739288  0.67310278  0.56674185    -0.40900
O2077       O  0.43644082  0.74653748  0.54523059    -0.77530
O2078       O  0.39379727  0.72425156  0.53205715    -0.96220
O2079       O  0.36897975  0.77377231  0.51206311    -0.89520
O2080       O  0.41946737  0.79684298  0.52988168    -0.92370
C2081       C  0.39966689  0.71597212  0.64439278     1.01380
C2082       C  0.43197606  0.81466534  0.63701844     1.14320
C2083       C  0.31737801  0.75024688  0.60626420     1.05100
O2084       O  0.32339819  0.70214268  0.54490495    -0.94520
O2085       O  0.35535300  0.70933906  0.49890662    -0.90270
O2086       O  0.39012297  0.72531973  0.97472706    -0.83410
C2087       C  0.37173599  0.70881142  0.97733108     1.11740
O2088       O  0.34326726  0.83791893  0.56298871    -0.96500
Zr2089     Zr  0.37696780  0.81284690  0.53846874     1.88940
O2090       O  0.41720473  0.79776161  0.97312572    -0.73140
O2091       O  0.31703710  0.76080830  0.51358309    -0.52410
O2092       O  0.34201632  0.81899983  0.50367836    -0.97090
O2093       O  0.38967634  0.85612545  0.55314494    -0.54300
O2094       O  0.39835642  0.83171263  0.49614768    -0.73660
C2095       C  0.41248443  0.82210385  0.97581721     0.98680
O2096       O  0.42999258  0.75274564  0.45509018    -0.62480
O2097       O  0.47910515  0.76114495  0.59310118    -0.57280
O2098       O  0.45508949  0.74602104  0.50438094    -0.93970
O2099       O  0.46965343  0.78156761  0.52664040    -0.92390
O2100       O  0.45501773  0.70544121  0.60347874    -0.92750
O2101       O  0.44606321  0.68544597  0.55241826    -0.91530
C2102       C  0.47162216  0.76368667  0.50734325     1.17530
H2103       H  0.43394061  0.75224612  0.61792026     0.33470
H2104       H  0.39508524  0.70758982  0.52303596     0.44320
H2105       H  0.43110145  0.80910292  0.52125123     0.37850
H2106       H  0.33994196  0.78715475  0.57316573     0.34330
H2107       H  0.40324467  0.66238344  0.58318806     0.26110
H2108       H  0.30425863  0.74695730  0.50983683     0.32050
H2109       H  0.34511332  0.83630051  0.49536979     0.37960
H2110       H  0.45115860  0.68871506  0.61282083     0.32420
H2111       H  0.49207133  0.77429186  0.59870179     0.31300
H2112       H  0.49150341  0.81355209  0.56776533     0.32980
H2113       H  0.38664870  0.86706613  0.53595748     0.31950
H2114       H  0.44643422  0.69094146  0.53192986     0.35950
H2115       H  0.43598834  0.73463186  0.45484331     0.28680
H2116       H  0.35384471  0.78524074  0.66357489     0.32910
H2117       H  0.33734706  0.85087592  0.54874736     0.35760
H2118       H  0.48734411  0.75172779  0.57683945     0.28370
H2119       H  0.41512163  0.75344310  0.44155274     0.41240
H2120       H  0.33309775  0.69008648  0.55748128     0.31300
H2121       H  0.37848101  0.67544953  0.57002287     0.38920
H2122       H  0.40885983  0.85526499  0.55496620     0.30770
H2123       H  0.30817593  0.77238340  0.52753671     0.30830
H2124       H  0.34717780  0.80691253  0.64098746     0.31100
Zr2125     Zr  0.50426631  0.63901111  0.76748733     2.17510
O2126       O  0.53777248  0.61456139  0.74193410    -0.51260
O2127       O  0.47667274  0.64741598  0.72597732    -0.74470
O2128       O  0.48867430  0.59537962  0.76121891    -0.81250
O2129       O  0.54152656  0.70377385  0.76044052    -0.82990
O2130       O  0.46173547  0.58300748  0.79833646    -0.78620
O2131       O  0.53482702  0.66640611  0.73612915    -0.90260
O2132       O  0.43936680  0.64912253  0.74996783    -0.76220
O2133       O  0.46058622  0.63613170  0.78734424    -0.85710
O2134       O  0.48838681  0.68189925  0.77060355    -0.85400
O2135       O  0.50367624  0.61776393  0.81485256    -0.72150
O2136       O  0.53390827  0.65792560  0.80107771    -0.84290
Zr2137     Zr  0.47789740  0.67871968  0.86703590     2.26420
Zr2138     Zr  0.45944462  0.61708999  0.83523598     2.06270
Zr2139     Zr  0.51738958  0.70102705  0.80409227     2.10050
Zr2140     Zr  0.44508674  0.67890182  0.78918767     1.78760
O2141       O  0.56085317  0.71916837  0.80874442    -0.93090
O2142       O  0.40002003  0.66491551  0.79445384    -0.40900
O2143       O  0.47446304  0.69989854  0.82154472    -0.77530
O2144       O  0.44524656  0.66057229  0.83652434    -0.96220
O2145       O  0.49098681  0.63517991  0.86663486    -0.89520
O2146       O  0.52075240  0.67963071  0.84826656    -0.92370
C2147       C  0.45218079  0.65184628  0.72668457     1.01380
C2148       C  0.54481344  0.68952003  0.73831159     1.14320
C2149       C  0.47403585  0.57903711  0.77432959     1.05100
O2150       O  0.41868129  0.59368404  0.83024138    -0.94520
O2151       O  0.42749262  0.63167089  0.87591255    -0.90270
O2152       O  0.44997541  0.66010696  0.90301336    -0.83410
C2153       C  0.42895519  0.64806819  0.89755054     1.11740
O2154       O  0.56042879  0.60112055  0.82902276    -0.96500
Zr2155     Zr  0.53425566  0.63670981  0.84774884     1.88940
O2156       O  0.50963412  0.68227292  0.90664130    -0.73140
O2157       O  0.47308729  0.58301207  0.86797425    -0.52410
O2158       O  0.53364624  0.60248495  0.88370131    -0.97090
O2159       O  0.58013664  0.64792636  0.84337370    -0.54300
O2160       O  0.54557110  0.65974436  0.89330406    -0.73660
C2161       C  0.53376998  0.67592062  0.91023830     0.98680
O2162       O  0.44868450  0.71200566  0.84727621    -0.62480
O2163       O  0.50047770  0.74236148  0.78787133    -0.57280
O2164       O  0.49127844  0.71821947  0.88364147    -0.93970
O2165       O  0.51556448  0.72987854  0.84454793    -0.92390
O2166       O  0.44171813  0.71059728  0.75053745    -0.92750
O2167       O  0.41633069  0.71595617  0.79651535    -0.91530
C2168       C  0.50657722  0.73302380  0.87019719     1.17530
H2169       H  0.48894972  0.69069084  0.75222666     0.33470
H2170       H  0.42778031  0.66361905  0.84342580     0.44320
H2171       H  0.53313095  0.68980590  0.85880733     0.37850
H2172       H  0.50931639  0.60014902  0.81229868     0.34330
H2173       H  0.39204291  0.66843395  0.77539987     0.26110
H2174       H  0.45732724  0.57232359  0.87069863     0.32050
H2175       H  0.54925350  0.60562406  0.89569451     0.37960
H2176       H  0.42480205  0.70702887  0.74114995     0.32420
H2177       H  0.51510074  0.75056922  0.77740805     0.31300
H2178       H  0.55820556  0.73806171  0.80801257     0.32980
H2179       H  0.58795878  0.64272784  0.86201265     0.31950
H2180       H  0.40319292  0.71076868  0.81107924     0.35950
H2181       H  0.45165065  0.72906031  0.85621803     0.28680
H2182       H  0.52864516  0.60125780  0.73048280     0.32910
H2183       H  0.57222959  0.59616950  0.84496605     0.35760
H2184       H  0.48748904  0.73807139  0.77289017     0.28370
H2185       H  0.43041127  0.70746257  0.85157531     0.41240
H2186       H  0.41058701  0.60089695  0.81262118     0.31300
H2187       H  0.40105673  0.64589679  0.79548556     0.38920
H2188       H  0.58036604  0.66700059  0.84378263     0.30770
H2189       H  0.48494642  0.57212746  0.85623411     0.30830
H2190       H  0.54705765  0.60499307  0.75724856     0.31100
Zr2191     Zr  0.52887119  0.91918725  0.76416730     2.17510
O2192       O  0.50014841  0.94230674  0.73126442    -0.51260
O2193       O  0.56390882  0.91374995  0.72983274    -0.74470
O2194       O  0.53961753  0.96467674  0.76123349    -0.81250
O2195       O  0.48734064  0.85733253  0.75704833    -0.82990
O2196       O  0.56073798  0.97874034  0.80193967    -0.78620
O2197       O  0.50216163  0.89042153  0.73009620    -0.90260
O2198       O  0.59947665  0.91128915  0.75716646    -0.76220
O2199       O  0.56887667  0.92510535  0.79086997    -0.85710
O2200       O  0.54722972  0.87737265  0.76922205    -0.85400
O2201       O  0.52140989  0.94063876  0.81036681    -0.72150
O2202       O  0.49675602  0.89691174  0.79163837    -0.84290
Zr2203     Zr  0.54292993  0.88260392  0.87013850     2.26420
Zr2204     Zr  0.56188608  0.94464687  0.83792736     2.06270
Zr2205     Zr  0.51617289  0.85510603  0.79791245     2.10050
Zr2206     Zr  0.58645731  0.88336688  0.79597690     1.78760
O2207       O  0.48579445  0.81993200  0.80525730    -0.93090
O2208       O  0.62973687  0.89846704  0.80917735    -0.40900
O2209       O  0.55456939  0.86177864  0.82447642    -0.77530
O2210       O  0.57753364  0.90193130  0.84225134    -0.96220
O2211       O  0.52718709  0.92501863  0.86432892    -0.89520
O2212       O  0.50396488  0.87650996  0.84145363    -0.92370
C2213       C  0.58853429  0.91086330  0.73256802     1.01380
C2214       C  0.48844845  0.86927585  0.73291879     1.14320
C2215       C  0.55081588  0.98199029  0.77671239     1.05100
O2216       O  0.60221478  0.96917711  0.83654394    -0.94520
O2217       O  0.58960612  0.93372307  0.88266828    -0.90270
O2218       O  0.55832648  0.91306757  0.90526899    -0.83410
C2219       C  0.58214604  0.91936759  0.90418201     1.11740
O2220       O  0.46295243  0.95318193  0.81374578    -0.96500
Zr2221     Zr  0.48819085  0.91906940  0.83668280     1.88940
O2222       O  0.50280556  0.87669743  0.90035485    -0.73140
O2223       O  0.54277538  0.97799979  0.86836363    -0.52410
O2224       O  0.48191682  0.95275170  0.87279688    -0.97090
O2225       O  0.44463076  0.90916018  0.81961931    -0.54300
O2226       O  0.46925068  0.89783247  0.87878881    -0.73660
C2227       C  0.47835480  0.88306272  0.89861263     0.98680
O2228       O  0.58183144  0.85607582  0.87867698    -0.62480
O2229       O  0.53990855  0.82023679  0.77419551    -0.57280
O2230       O  0.54141914  0.84163326  0.89061943    -0.93970
O2231       O  0.53007206  0.84542396  0.84609061    -0.92390
O2232       O  0.59602437  0.85098272  0.75921487    -0.92750
O2233       O  0.61442377  0.84802044  0.81153413    -0.91530
C2234       C  0.53331053  0.83113157  0.86792854     1.17530
H2235       H  0.54990990  0.86900950  0.75077466     0.33470
H2236       H  0.59426477  0.90102105  0.85144380     0.44320
H2237       H  0.49031297  0.86616908  0.84964624     0.37850
H2238       H  0.51451183  0.95767330  0.80707472     0.34330
H2239       H  0.64108019  0.89311070  0.79288460     0.26110
H2240       H  0.55690516  0.99073869  0.87090734     0.32050
H2241       H  0.46423677  0.94979069  0.88070968     0.37960
H2242       H  0.61307265  0.85612544  0.75102211     0.32420
H2243       H  0.54194810  0.80685395  0.78925950     0.31300
H2244       H  0.49686264  0.80470082  0.80919099     0.32980
H2245       H  0.43311281  0.91253096  0.83640473     0.31950
H2246       H  0.62111730  0.85314243  0.83073263     0.35950
H2247       H  0.58394627  0.84507096  0.86143233     0.28680
H2248       H  0.51177214  0.95096550  0.71719943     0.32910
H2249       H  0.45103339  0.95997515  0.82881253     0.35760
H2250       H  0.52747776  0.81279262  0.76020980     0.28370
H2251       H  0.59730188  0.86725576  0.87753124     0.41240
H2252       H  0.61138000  0.96291523  0.81901945     0.31300
H2253       H  0.62872502  0.91745831  0.80757937     0.38920
H2254       H  0.44464274  0.89022290  0.81710820     0.30770
H2255       H  0.53001133  0.98674926  0.85571258     0.30830
H2256       H  0.49235792  0.95640599  0.74287232     0.31100
Zr2257     Zr  0.65148000  0.26813233  0.88482597     2.17510
O2258       O  0.68094693  0.29568133  0.85732201    -0.51260
O2259       O  0.64495565  0.23942393  0.84318618    -0.74470
O2260       O  0.69688551  0.25489494  0.88845875    -0.81250
O2261       O  0.58762985  0.30692513  0.86775631    -0.82990
O2262       O  0.70506630  0.23424944  0.93122901    -0.78620
O2263       O  0.63039952  0.30433602  0.85546423    -0.90260
O2264       O  0.64308208  0.20186001  0.86651886    -0.76220
O2265       O  0.65487345  0.22632278  0.90840873    -0.85710
O2266       O  0.60951130  0.24937982  0.88111404    -0.85400
O2267       O  0.66372379  0.27270262  0.93562549    -0.72150
O2268       O  0.62464767  0.29756349  0.91119122    -0.84290
Zr2269     Zr  0.59588632  0.24444360  0.98024729     2.26420
Zr2270     Zr  0.66498731  0.23085200  0.95935445     2.06270
Zr2271     Zr  0.58302997  0.27828249  0.90715285     2.10050
Zr2272     Zr  0.61274457  0.20904479  0.90561687     1.78760
O2273       O  0.57118214  0.32266435  0.91854384    -0.93090
O2274       O  0.62901589  0.16585160  0.91551208    -0.40900
O2275       O  0.60917049  0.24827421  0.93135512    -0.77530
O2276       O  0.62221214  0.21247378  0.95579561    -0.96220
O2277       O  0.63849589  0.26075493  0.98664670    -0.89520
O2278       O  0.59143959  0.28536098  0.95734100    -0.92370
C2279       C  0.64152181  0.21492439  0.84332518     1.01380
C2280       C  0.60710324  0.31441508  0.85298755     1.14320
C2281       C  0.71192726  0.24341412  0.90651587     1.05100
O2282       O  0.68928602  0.19055551  0.95796094    -0.94520
O2283       O  0.65485002  0.20138529  0.00108075    -0.90270
O2284       O  0.61539260  0.21648846  0.51494319    -0.83410
C2285       C  0.63487009  0.20137823  0.51833934     1.11740
O2286       O  0.66917339  0.33121095  0.94576430    -0.96500
Zr2287     Zr  0.63555741  0.30132916  0.96193195     1.88940
O2288       O  0.58669245  0.27858414  0.51680047    -0.73140
O2289       O  0.69469747  0.24898479  0.99479952    -0.52410
O2290       O  0.66697537  0.30078161  0.00120658    -0.97090
O2291       O  0.62832258  0.34782508  0.96040283    -0.54300
O2292       O  0.60845979  0.31446888  0.00231360    -0.73660
C2293       C  0.59248330  0.30279363  0.51914166     0.98680
O2294       O  0.56447716  0.21213470  0.99546887    -0.62480
O2295       O  0.55346335  0.25908390  0.87154115    -0.57280
O2296       O  0.55211991  0.23561040  0.96392994    -0.93970
O2297       O  0.54752155  0.25116017  0.92107081    -0.92390
O2298       O  0.57952070  0.19682107  0.87100308    -0.92750
O2299       O  0.57050831  0.19462739  0.92318777    -0.91530
C2300       C  0.54145595  0.25189616  0.94739083     1.17530
H2301       H  0.60289207  0.24799553  0.86195222     0.33470
H2302       H  0.62062518  0.19553185  0.96418413     0.44320
H2303       H  0.57830132  0.29639099  0.96570945     0.37850
H2304       H  0.68097855  0.28001582  0.93635665     0.34330
H2305       H  0.62031725  0.15482501  0.90099895     0.26110
H2306       H  0.70785634  0.23530364  0.99787709     0.32050
H2307       H  0.66347020  0.31683875  0.01213479     0.37960
H2308       H  0.58409314  0.17891770  0.86553912     0.32420
H2309       H  0.55772124  0.26744042  0.85290417     0.31300
H2310       H  0.58727480  0.33013934  0.92653854     0.32980
H2311       H  0.63541440  0.35444311  0.97886092     0.31950
H2312       H  0.57452779  0.17967896  0.93568811     0.35950
H2313       H  0.57281473  0.19534367  0.99105748     0.28680
H2314       H  0.69059635  0.28404891  0.84408705     0.32910
H2315       H  0.68555020  0.32494897  0.95455280     0.35760
H2316       H  0.55874954  0.24091577  0.86886207     0.28370
H2317       H  0.56471769  0.21319678  0.01676973     0.41240
H2318       H  0.67647700  0.17754449  0.95154879     0.31300
H2319       H  0.64748601  0.16619166  0.90933291     0.38920
H2320       H  0.60933389  0.35035068  0.96235633     0.30770
H2321       H  0.70417824  0.26263833  0.98421270     0.30830
H2322       H  0.69404513  0.30190376  0.87133818     0.31100
Zr2323     Zr  0.37306946  0.29431328  0.89173393     2.17510
O2324       O  0.34921777  0.26439289  0.86104443    -0.51260
O2325       O  0.37656551  0.32873940  0.85643039    -0.74470
O2326       O  0.32738288  0.30603560  0.88867726    -0.81250
O2327       O  0.43977487  0.25964567  0.88003003    -0.82990
O2328       O  0.31515020  0.32614863  0.93057861    -0.78620
O2329       O  0.40099637  0.26688836  0.85780934    -0.90260
O2330       O  0.37608888  0.36349792  0.88439566    -0.76220
O2331       O  0.36725068  0.33424405  0.91767241    -0.85710
O2332       O  0.41439230  0.31462337  0.89432787    -0.85400
O2333       O  0.35412968  0.28594030  0.93904793    -0.72150
O2334       O  0.39831620  0.26468457  0.91945424    -0.84290
Zr2335     Zr  0.41657123  0.31393625  0.99428375     2.26420
Zr2336     Zr  0.35030253  0.32636202  0.96518175     2.06270
Zr2337     Zr  0.43942440  0.28597598  0.92282802     2.10050
Zr2338     Zr  0.40851388  0.35415029  0.92002855     1.78760
O2339       O  0.47179238  0.25160210  0.92261464    -0.93090
O2340       O  0.39374301  0.39744196  0.93201367    -0.40900
O2341       O  0.43405243  0.32528493  0.94789065    -0.77530
O2342       O  0.39241262  0.34569684  0.96744743    -0.96220
O2343       O  0.37435103  0.29553367  0.99262028    -0.89520
O2344       O  0.42218153  0.27460180  0.96825805    -0.92370
C2345       C  0.37808479  0.35325630  0.85957872     1.01380
C2346       C  0.42433647  0.25679057  0.85862341     1.14320
C2347       C  0.31078601  0.31761175  0.90501506     1.05100
O2348       O  0.31980826  0.36228487  0.96707719    -0.94520
O2349       O  0.35615879  0.35654736  0.00649773    -0.90270
O2350       O  0.39488036  0.34447876  0.52537257    -0.83410
C2351       C  0.37447629  0.35855227  0.52526279     1.11740
O2352       O  0.34558707  0.22808222  0.94804511    -0.96500
Zr2353     Zr  0.37989655  0.25613615  0.96622620     1.88940
O2354       O  0.42486846  0.27641148  0.52526547    -0.73140
O2355       O  0.32114974  0.30332779  0.99760673    -0.52410
O2356       O  0.34825373  0.24789301  0.00446515    -0.97090
O2357       O  0.39599661  0.21395792  0.95125305    -0.54300
O2358       O  0.40496696  0.24098716  0.00706980    -0.73660
C2359       C  0.41997966  0.25211654  0.52511400     0.98680
O2360       O  0.44098093  0.32470709  0.03786406    -0.62480
O2361       O  0.46630818  0.31371470  0.89339819    -0.57280
O2362       O  0.46011367  0.32781798  0.98615739    -0.93970
O2363       O  0.47257585  0.29398191  0.95872268    -0.92390
O2364       O  0.43825778  0.36358668  0.88024213    -0.92750
O2365       O  0.44347247  0.38296821  0.93462722    -0.91530
C2366       C  0.47746392  0.31347569  0.97502770     1.17530
H2367       H  0.42161988  0.31692050  0.87519368     0.33470
H2368       H  0.39299484  0.36256269  0.97609616     0.44320
H2369       H  0.43537016  0.26325856  0.97580296     0.37850
H2370       H  0.33702572  0.27855875  0.93664919     0.34330
H2371       H  0.39946903  0.40822324  0.91555123     0.26110
H2372       H  0.30484306  0.31352883  0.99741652     0.32050
H2373       H  0.35331718  0.23099804  0.01264640     0.37960
H2374       H  0.43619274  0.38227910  0.87668278     0.32420
H2375       H  0.47933198  0.30148405  0.88590102     0.31300
H2376       H  0.48626696  0.25814645  0.91051637     0.32980
H2377       H  0.39698253  0.20366492  0.96922261     0.31950
H2378       H  0.44636599  0.37898316  0.95529841     0.35950
H2379       H  0.44279405  0.34370474  0.03810217     0.28680
H2380       H  0.34083913  0.27521703  0.84609988     0.32910
H2381       H  0.34490944  0.21326368  0.96148692     0.35760
H2382       H  0.47578111  0.32458428  0.90735135     0.28370
H2383       H  0.42930127  0.32067084  0.05432308     0.41240
H2384       H  0.32835233  0.37604714  0.95569011     0.31300
H2385       H  0.37454267  0.39676056  0.93036674     0.38920
H2386       H  0.41436689  0.21696721  0.94568391     0.30770
H2387       H  0.31681446  0.28728062  0.98713767     0.30830
H2388       H  0.33470269  0.25794864  0.87316827     0.31100
Zr2389     Zr  0.52066140  0.14681717  0.73844921     2.17510
O2390       O  0.48676148  0.12612003  0.76707932    -0.51260
O2391       O  0.55140910  0.15244722  0.77767383    -0.74470
O2392       O  0.53190837  0.10151520  0.74365674    -0.81250
O2393       O  0.49355251  0.21605476  0.74895580    -0.82990
O2394       O  0.55232604  0.08625419  0.70296038    -0.78620
O2395       O  0.49265005  0.17637543  0.76962706    -0.90260
O2396       O  0.58515124  0.14558451  0.74923849    -0.76220
O2397       O  0.56027920  0.13590907  0.71234731    -0.85710
O2398       O  0.54462733  0.18591274  0.73314624    -0.85400
O2399       O  0.51166064  0.12648801  0.69195160    -0.72150
O2400       O  0.49339928  0.17366158  0.70974166    -0.84290
Zr2401     Zr  0.54329651  0.18365886  0.63517421     2.26420
Zr2402     Zr  0.55190980  0.11821296  0.66485795     2.06270
Zr2403     Zr  0.51795739  0.21269435  0.70410357     2.10050
Zr2404     Zr  0.58402806  0.17452887  0.70871195     1.78760
O2405       O  0.48257014  0.24182394  0.69159790    -0.93090
O2406       O  0.62457652  0.15058025  0.70297387    -0.40900
O2407       O  0.55652729  0.20123355  0.68029681    -0.77530
O2408       O  0.57408139  0.15807580  0.66191551    -0.96220
O2409       O  0.52172865  0.14359006  0.63855012    -0.89520
O2410       O  0.50445639  0.19370594  0.66081136    -0.92370
C2411       C  0.57595827  0.15289231  0.77336544     1.01380
C2412       C  0.48634256  0.20077759  0.76925261     1.14320
C2413       C  0.54348098  0.08385193  0.72882864     1.05100
O2414       O  0.58667926  0.08648425  0.66062614    -0.94520
O2415       O  0.58050422  0.12625001  0.62008139    -0.90270
O2416       O  0.55293758  0.15235290  0.59852200    -0.83410
C2417       C  0.57523466  0.14200774  0.59907349     1.11740
O2418       O  0.45253663  0.12328383  0.68729563    -0.96500
Zr2419     Zr  0.48290914  0.15326611  0.66467144     1.88940
O2420       O  0.50748778  0.19469946  0.60230858    -0.73140
O2421       O  0.52602271  0.08788857  0.63702260    -0.52410
O2422       O  0.47347297  0.12019468  0.62880622    -0.97090
O2423       O  0.44000108  0.17040262  0.67667049    -0.54300
O2424       O  0.47076339  0.17687451  0.62149218    -0.73660
C2425       C  0.48267600  0.19087438  0.60282143     0.98680
O2426       O  0.58688107  0.20360098  0.63324934    -0.62480
O2427       O  0.53759632  0.24783993  0.73060238    -0.57280
O2428       O  0.54336978  0.22730170  0.62406241    -0.93970
O2429       O  0.54242334  0.24075098  0.67060748    -0.92390
O2430       O  0.59712863  0.20873918  0.74155985    -0.92750
O2431       O  0.62029009  0.20057241  0.69126176    -0.91530
C2432       C  0.54815429  0.24383563  0.64348380     1.17530
H2433       H  0.54782334  0.19443605  0.75124079     0.33470
H2434       H  0.59094628  0.15656721  0.65291976     0.44320
H2435       H  0.49413889  0.20699437  0.65189401     0.37850
H2436       H  0.50304249  0.11023781  0.69534026     0.34330
H2437       H  0.63396646  0.15329149  0.72138388     0.26110
H2438       H  0.53894076  0.07819376  0.62535021     0.32050
H2439       H  0.45693007  0.12572709  0.61978264     0.37960
H2440       H  0.61477809  0.20373355  0.74805804     0.32420
H2441       H  0.52259875  0.25822478  0.73734464     0.31300
H2442       H  0.48634076  0.25788805  0.70230835     0.32980
H2443       H  0.43156520  0.17403722  0.65790346     0.31950
H2444       H  0.62550164  0.19287337  0.67253057     0.35950
H2445       H  0.58811697  0.21740894  0.61869658     0.28680
H2446       H  0.49543235  0.11242448  0.77840620     0.32910
H2447       H  0.43968988  0.11885147  0.67218613     0.35760
H2448       H  0.54507370  0.23993151  0.74815183     0.28370
H2449       H  0.60038518  0.19083957  0.62812033     0.41240
H2450       H  0.60239634  0.09559020  0.66753814     0.31300
H2451       H  0.61930995  0.13224706  0.70344888     0.38920
H2452       H  0.44347385  0.18755449  0.68517453     0.30770
H2453       H  0.51968374  0.07529686  0.65147509     0.30830
H2454       H  0.47591692  0.11696769  0.75274464     0.31100
Zr2455     Zr  0.49967538  0.41645476  0.74231794     2.17510
O2456       O  0.52525265  0.44274431  0.77540002    -0.51260
O2457       O  0.47099189  0.40746775  0.78423084    -0.74470
O2458       O  0.48761540  0.46152016  0.73988882    -0.81250
O2459       O  0.53640759  0.35192118  0.75748649    -0.82990
O2460       O  0.46401555  0.47113704  0.69951573    -0.78620
O2461       O  0.53748846  0.39456554  0.76813460    -0.90260
O2462       O  0.43472168  0.40932560  0.75883715    -0.76220
O2463       O  0.45801130  0.42083966  0.71853980    -0.85710
O2464       O  0.47946363  0.37571168  0.74291413    -0.85400
O2465       O  0.50513857  0.43147551  0.69234945    -0.72150
O2466       O  0.52832188  0.39119701  0.71352867    -0.84290
Zr2467     Zr  0.47561246  0.36416398  0.64339123     2.26420
Zr2468     Zr  0.46319042  0.43292591  0.66836200     2.06270
Zr2469     Zr  0.50863257  0.35002192  0.71618016     2.10050
Zr2470     Zr  0.43819834  0.38001431  0.71892015     1.78760
O2471       O  0.55500589  0.35262622  0.70525618    -0.93090
O2472       O  0.39625931  0.36020470  0.73053060    -0.40900
O2473       O  0.46716372  0.35242030  0.69265553    -0.77530
O2474       O  0.44475926  0.39025018  0.66975335    -0.96220
O2475       O  0.49259104  0.40700719  0.64012522    -0.89520
O2476       O  0.51640229  0.36206373  0.66708716    -0.92370
C2477       C  0.44623282  0.40501249  0.78240874     1.01380
C2478       C  0.54614412  0.37100050  0.77101719     1.14320
C2479       C  0.47484823  0.47710799  0.72368503     1.05100
O2480       O  0.42536101  0.46103711  0.66449574    -0.94520
O2481       O  0.43187342  0.42268758  0.62874322    -0.90270
O2482       O  0.44415585  0.38355700  0.61093166    -0.83410
C2483       C  0.42921242  0.40337089  0.61121433     1.11740
O2484       O  0.56388742  0.43765518  0.68042640    -0.96500
Zr2485     Zr  0.53356346  0.40474472  0.66390737     1.88940
O2486       O  0.51014348  0.35797054  0.60680261    -0.73140
O2487       O  0.48452472  0.46148307  0.63402064    -0.52410
O2488       O  0.53273528  0.43626140  0.62502167    -0.97090
O2489       O  0.58064530  0.39879577  0.66682482    -0.54300
O2490       O  0.54673161  0.37751639  0.62329090    -0.73660
C2491       C  0.53477664  0.36267381  0.60550624     0.98680
O2492       O  0.45102151  0.33318088  0.61479055    -0.62480
O2493       O  0.50282886  0.31245693  0.74778842    -0.57280
O2494       O  0.47778618  0.31834706  0.65365072    -0.93970
O2495       O  0.49532659  0.31014349  0.69578635    -0.92390
O2496       O  0.40243248  0.40717338  0.70158033    -0.92750
O2497       O  0.42574550  0.33736230  0.73609912    -0.91530
C2498       C  0.49602839  0.30837318  0.66867328     1.17530
H2499       H  0.47946294  0.36850331  0.76190670     0.33470
H2500       H  0.42771935  0.38833103  0.66162564     0.44320
H2501       H  0.52709487  0.34921950  0.65792374     0.37850
H2502       H  0.51242847  0.44860715  0.69253978     0.34330
H2503       H  0.38627989  0.37358501  0.74113008     0.26110
H2504       H  0.47043938  0.46702803  0.62084597     0.32050
H2505       H  0.54938200  0.43357134  0.61457405     0.37960
H2506       H  0.39115099  0.39657755  0.68907753     0.32420
H2507       H  0.50534164  0.31824715  0.76796063     0.31300
H2508       H  0.55918471  0.34526982  0.68616121     0.32980
H2509       H  0.58707447  0.39975914  0.64664456     0.31950
H2510       H  0.43827656  0.32522007  0.72711469     0.35950
H2511       H  0.45418335  0.33797007  0.59438750     0.28680
H2512       H  0.51262332  0.45351845  0.78624251     0.32910
H2513       H  0.55721524  0.45408461  0.67248540     0.35760
H2514       H  0.48418462  0.30774356  0.74684244     0.28370
H2515       H  0.43236189  0.33683073  0.61840059     0.41240
H2516       H  0.41299567  0.45454945  0.67922716     0.31300
H2517       H  0.38686118  0.35793969  0.71202126     0.38920
H2518       H  0.58358382  0.38073158  0.67257713     0.30770
H2519       H  0.48877184  0.47709679  0.64536209     0.30830
H2520       H  0.53502880  0.45487578  0.76299999     0.31100
Zr2521     Zr  0.14329385  0.29726074  0.86171067     2.17510
O2522       O  0.16661761  0.26742861  0.89306611    -0.51260
O2523       O  0.13275036  0.33449012  0.89277296    -0.74470
O2524       O  0.18742615  0.31230610  0.87130556    -0.81250
O2525       O  0.07966338  0.25713053  0.86719498    -0.82990
O2526       O  0.20606279  0.32577033  0.82936793    -0.78620
O2527       O  0.11339072  0.27167715  0.89450336    -0.90260
O2528       O  0.13241967  0.36712406  0.86086539    -0.76220
O2529       O  0.15090226  0.33507657  0.83303925    -0.85710
O2530       O  0.10137757  0.31289498  0.84910635    -0.85400
O2531       O  0.16894206  0.28655739  0.81907813    -0.72150
O2532       O  0.12459210  0.26307116  0.83392016    -0.84290
Zr2533     Zr  0.11759227  0.30129820  0.75150403     2.26420
Zr2534     Zr  0.17504486  0.32526235  0.78982915     2.06270
Zr2535     Zr  0.08261685  0.27937888  0.82084173     2.10050
Zr2536     Zr  0.10928445  0.35017384  0.82028937     1.78760
O2537       O  0.05810251  0.23961339  0.81505744    -0.93090
O2538       O  0.12734323  0.39059651  0.80182520    -0.40900
O2539       O  0.09276675  0.31568725  0.79276226    -0.77530
O2540       O  0.13211203  0.33848089  0.77727910    -0.96220
O2541       O  0.15983367  0.28816216  0.76372823    -0.89520
O2542       O  0.10817343  0.26496731  0.78124011    -0.92370
C2543       C  0.13131455  0.35870510  0.88662183     1.01380
C2544       C  0.09219009  0.25821596  0.89115804     1.14320
C2545       C  0.20692436  0.32085203  0.85659349     1.05100
O2546       O  0.19504615  0.36750741  0.79397070    -0.94520
O2547       O  0.16933530  0.35365131  0.74583697    -0.90270
O2548       O  0.14526583  0.32649262  0.71962103    -0.83410
C2549       C  0.15620723  0.34848012  0.72268504     1.11740
O2550       O  0.18383042  0.22873360  0.82117609    -0.96500
Zr2551     Zr  0.15077378  0.25086238  0.79269619     1.88940
O2552       O  0.11333841  0.26073514  0.72490394    -0.73140
O2553       O  0.21294689  0.30908796  0.76378835    -0.52410
O2554       O  0.18727743  0.24266476  0.76017022    -0.97090
O2555       O  0.13858486  0.20869969  0.81141633    -0.54300
O2556       O  0.13178353  0.22850874  0.75066779    -0.73660
C2557       C  0.11865325  0.23680858  0.72890172     0.98680
O2558       O  0.09889810  0.29775894  0.70323816    -0.62480
O2559       O  0.04394768  0.29922526  0.84169322    -0.57280
O2560       O  0.07635902  0.32000090  0.75442799    -0.93970
O2561       O  0.05634863  0.28731681  0.77703841    -0.92390
O2562       O  0.07196208  0.36069816  0.85088794    -0.92750
O2563       O  0.07464815  0.37501511  0.79769011    -0.91530
C2564       C  0.05773668  0.30447639  0.75676804     1.17530
H2565       H  0.09109538  0.31658269  0.86614339     0.33470
H2566       H  0.12926936  0.35372456  0.76589070     0.44320
H2567       H  0.09696742  0.25213710  0.77288366     0.37850
H2568       H  0.18584951  0.28073803  0.82540843     0.34330
H2569       H  0.11353241  0.40382316  0.80339724     0.26110
H2570       H  0.22635655  0.32253052  0.76658269     0.32050
H2571       H  0.18501364  0.22460228  0.75376588     0.37960
H2572       H  0.05778931  0.34926882  0.84423223     0.32420
H2573       H  0.03014838  0.28625316  0.83867610     0.31300
H2574       H  0.04036937  0.24518917  0.80948818     0.32980
H2575       H  0.14083822  0.19670105  0.79493831     0.31950
H2576       H  0.07890371  0.37443801  0.77680574     0.35950
H2577       H  0.08629641  0.31185538  0.70050548     0.28680
H2578       H  0.15712391  0.25089764  0.89167549     0.32910
H2579       H  0.19071061  0.21485773  0.80856399     0.35760
H2580       H  0.04700804  0.29907263  0.86280461     0.28370
H2581       H  0.11301827  0.30103121  0.68922611     0.41240
H2582       H  0.18661658  0.37542451  0.81110057     0.31300
H2583       H  0.14063595  0.39595447  0.81603681     0.38920
H2584       H  0.11950836  0.20980457  0.81433260     0.30770
H2585       H  0.21908639  0.29436012  0.77554056     0.30830
H2586       H  0.18315697  0.26386237  0.88272664     0.31100
Zr2587     Zr  0.87924896  0.27142842  0.86609167     2.17510
O2588       O  0.85450557  0.30421063  0.89195231    -0.51260
O2589       O  0.88621517  0.23618820  0.90083946    -0.74470
O2590       O  0.83529599  0.25632939  0.87475343    -0.81250
O2591       O  0.93946354  0.31588679  0.86662639    -0.82990
O2592       O  0.81984821  0.23647975  0.83430836    -0.78620
O2593       O  0.90886066  0.30019736  0.89723827    -0.90260
O2594       O  0.88442335  0.20277649  0.87045192    -0.76220
O2595       O  0.87305005  0.23148123  0.84035366    -0.85710
O2596       O  0.92106689  0.25339266  0.85939107    -0.85400
O2597       O  0.85613489  0.27753322  0.82051800    -0.72150
O2598       O  0.90010193  0.30243897  0.83600131    -0.84290
Zr2599     Zr  0.91476366  0.25517408  0.76049858     2.26420
Zr2600     Zr  0.85204445  0.23696439  0.79417645     2.06270
Zr2601     Zr  0.94262139  0.28391789  0.82964336     2.10050
Zr2602     Zr  0.91488361  0.21391252  0.83341248     1.78760
O2603       O  0.98280464  0.30880980  0.82921337    -0.93090
O2604       O  0.89598579  0.17406439  0.81389787    -0.40900
O2605       O  0.93696371  0.24518804  0.80473083    -0.77530
O2606       O  0.89534687  0.22143610  0.78762468    -0.96220
O2607       O  0.87147317  0.27016492  0.76587905    -0.89520
O2608       O  0.91939635  0.29495330  0.78673220    -0.92370
C2609       C  0.88597019  0.21172300  0.89585561     1.01380
C2610       C  0.92886835  0.31507833  0.89157339     1.14320
C2611       C  0.81734060  0.24447364  0.86076945     1.05100
O2612       O  0.82770518  0.19692103  0.79326687    -0.94520
O2613       O  0.86289927  0.20768181  0.75066567    -0.90270
O2614       O  0.89339323  0.22892150  0.72441531    -0.83410
C2615       C  0.87958513  0.20883702  0.72915311     1.11740
O2616       O  0.84326811  0.33600389  0.81510018    -0.96500
Zr2617     Zr  0.87658124  0.30986237  0.79136416     1.88940
O2618       O  0.91873695  0.29161617  0.72626310    -0.73140
O2619       O  0.81689861  0.25587738  0.76609520    -0.52410
O2620       O  0.84090714  0.31451401  0.75723118    -0.97090
O2621       O  0.88758147  0.35405070  0.80372281    -0.54300
O2622       O  0.89771413  0.32589900  0.74638865    -0.73660
C2623       C  0.91241394  0.31575202  0.72661960     0.98680
O2624       O  0.94754942  0.22452292  0.77995353    -0.62480
O2625       O  0.97375926  0.25460999  0.85206991    -0.57280
O2626       O  0.95367141  0.26328712  0.73694148    -0.93970
O2627       O  0.95683441  0.27708942  0.78094502    -0.92390
O2628       O  0.94799125  0.20240610  0.86888723    -0.92750
O2629       O  0.95204289  0.18467751  0.82787232    -0.91530
C2630       C  0.96657712  0.27492759  0.75597328     1.17530
H2631       H  0.92954694  0.25113381  0.87779865     0.33470
H2632       H  0.89805913  0.20526692  0.77798625     0.44320
H2633       H  0.92843949  0.30898775  0.77763805     0.37850
H2634       H  0.83880938  0.28365302  0.82494265     0.34330
H2635       H  0.90955331  0.16056909  0.81305513     0.26110
H2636       H  0.80514467  0.24126357  0.76188405     0.32050
H2637       H  0.84196761  0.33263434  0.75067184     0.37960
H2638       H  0.94133057  0.20839676  0.88783494     0.32420
H2639       H  0.99105577  0.25992141  0.84476798     0.31300
H2640       H  0.97832154  0.32625868  0.83630930     0.32980
H2641       H  0.88394987  0.36404464  0.78597301     0.31950
H2642       H  0.95049867  0.17598232  0.80892808     0.35950
H2643       H  0.96478267  0.22590885  0.77033294     0.28680
H2644       H  0.86409888  0.32041580  0.88837114     0.32910
H2645       H  0.82654136  0.32730079  0.81104088     0.35760
H2646       H  0.97387112  0.25884394  0.87290601     0.28370
H2647       H  0.94182232  0.20662332  0.77634135     0.41240
H2648       H  0.83864216  0.18466374  0.80426109     0.31300
H2649       H  0.88313228  0.16803232  0.82835399     0.38920
H2650       H  0.90678400  0.35395937  0.80547765     0.30770
H2651       H  0.80712312  0.26658909  0.78016676     0.30830
H2652       H  0.83843253  0.30636018  0.88043618     0.31100
Zr2653     Zr  0.99265572  0.15392927  0.51463856     2.17510
O2654       O  0.01590060  0.13426611  0.47412051    -0.51260
O2655       O  0.95412269  0.16261696  0.98510037    -0.74470
O2656       O  0.98344504  0.10806564  0.50899985    -0.81250
O2657       O  0.02911775  0.21932105  0.50612055    -0.82990
O2658       O  0.96487932  0.09177944  0.55010589    -0.78620
O2659       O  0.02044458  0.18230427  0.98193436    -0.90260
O2660       O  0.92087809  0.16097129  0.51636913    -0.76220
O2661       O  0.95439478  0.14610705  0.54362181    -0.85710
O2662       O  0.97481195  0.19500945  0.52539350    -0.85400
O2663       O  0.00422323  0.13058301  0.55845561    -0.72150
O2664       O  0.02622464  0.17457191  0.54179768    -0.84290
Zr2665     Zr  0.98514744  0.18618572  0.62443841     2.26420
Zr2666     Zr  0.96531570  0.12468226  0.58811101     2.06270
Zr2667     Zr  0.00780625  0.21580041  0.55284622     2.10050
Zr2668     Zr  0.93709934  0.18713409  0.55450457     1.78760
O2669       O  0.04656919  0.24043903  0.56501302    -0.93090
O2670       O  0.89703157  0.16852842  0.57424112    -0.40900
O2671       O  0.97107024  0.20644932  0.58093259    -0.77530
O2672       O  0.94968359  0.16710408  0.59819087    -0.96220
O2673       O  0.00036867  0.14392593  0.61487169    -0.89520
O2674       O  0.02250532  0.19411850  0.59494951    -0.92370
C2675       C  0.92958881  0.16265309  0.99090272     1.01380
C2676       C  0.03091796  0.20520660  0.98351826     1.14320
C2677       C  0.97324210  0.08973054  0.52389981     1.05100
O2678       O  0.92661281  0.09770773  0.58752272    -0.94520
O2679       O  0.93587820  0.12982691  0.63167377    -0.90270
O2680       O  0.95384071  0.16380790  0.65507615    -0.83410
C2681       C  0.93650091  0.14607607  0.65306412     1.11740
O2682       O  0.06362179  0.11920348  0.55943627    -0.96500
Zr2683     Zr  0.03798909  0.15162132  0.58512251     1.88940
O2684       O  0.02614801  0.18942932  0.65253402    -0.73140
O2685       O  0.98753115  0.09158257  0.61595727    -0.52410
O2686       O  0.04610728  0.11526017  0.61715122    -0.97090
O2687       O  0.08023220  0.16608516  0.56739568    -0.54300
O2688       O  0.05881111  0.17017813  0.62745416    -0.73660
C2689       C  0.05034322  0.18332262  0.64902432     0.98680
O2690       O  0.98274483  0.20607775  0.67174535    -0.62480
O2691       O  0.99224002  0.25134458  0.52402958    -0.57280
O2692       O  0.96792554  0.22922362  0.62441955    -0.93970
O2693       O  0.98704303  0.24717631  0.58509791    -0.92390
O2694       O  0.92353019  0.22097241  0.52127971    -0.92750
O2695       O  0.91107232  0.22133087  0.57633282    -0.91530
C2696       C  0.97276428  0.24838955  0.60814716     1.17530
H2697       H  0.97089219  0.20462124  0.50806883     0.33470
H2698       H  0.93348357  0.16903552  0.60839407     0.44320
H2699       H  0.03511699  0.20547250  0.60356794     0.37850
H2700       H  0.01119575  0.11388749  0.55340361     0.34330
H2701       H  0.88342414  0.18200742  0.57355302     0.26110
H2702       H  0.97362633  0.07927248  0.62129460     0.32050
H2703       H  0.06362330  0.11839259  0.62528805     0.37960
H2704       H  0.93349214  0.23640816  0.52708289     0.32420
H2705       H  0.97481760  0.25543571  0.53195437     0.31300
H2706       H  0.04123928  0.25868845  0.56302247     0.32980
H2707       H  0.09196547  0.16540278  0.58430990     0.31950
H2708       H  0.91630591  0.22143225  0.59691194     0.35950
H2709       H  0.96421486  0.21104722  0.67334267     0.28680
H2710       H  0.00234681  0.12602471  0.96205136     0.32910
H2711       H  0.07848915  0.11506901  0.57220029     0.35760
H2712       H  0.00353470  0.26581743  0.52992066     0.28370
H2713       H  0.98496170  0.19177628  0.68567957     0.41240
H2714       H  0.91365481  0.10787049  0.57654377     0.31300
H2715       H  0.89132117  0.15530003  0.56022289     0.38920
H2716       H  0.07781255  0.18468208  0.56349831     0.30770
H2717       H  0.99826768  0.08221610  0.60154188     0.30830
H2718       H  0.02607296  0.11986579  0.48243973     0.31100
Zr2719     Zr  0.03023873  0.42254882  0.51189069     2.17510
O2720       O  0.00794715  0.44957810  0.47659742    -0.51260
O2721       O  0.06633566  0.41585576  0.97804731    -0.74470
O2722       O  0.04160002  0.46777647  0.51563266    -0.81250
O2723       O  0.99212792  0.35941155  0.49103350    -0.82990
O2724       O  0.06058005  0.47686860  0.55910134    -0.78620
O2725       O  0.99825379  0.40088662  0.97682475    -0.90260
O2726       O  0.10064312  0.41191367  0.50743146    -0.76220
O2727       O  0.06942358  0.42371493  0.54054413    -0.85710
O2728       O  0.04706114  0.38020153  0.51298540    -0.85400
O2729       O  0.02042965  0.43792681  0.56075915    -0.72150
O2730       O  0.99681274  0.39951094  0.53600886    -0.84290
Zr2731     Zr  0.03934742  0.37032567  0.61227258     2.26420
Zr2732     Zr  0.06021477  0.43752106  0.58930581     2.06270
Zr2733     Zr  0.01335892  0.35677747  0.53585227     2.10050
Zr2734     Zr  0.08550741  0.38101229  0.54194029     1.78760
O2735       O  0.96646733  0.35692322  0.54577332    -0.93090
O2736       O  0.12544224  0.39681738  0.56458604    -0.40900
O2737       O  0.05195969  0.35656426  0.56443198    -0.77530
O2738       O  0.07457307  0.39331859  0.58970899    -0.96220
O2739       O  0.02563262  0.41415140  0.61304436    -0.89520
O2740       O  0.00101604  0.36977866  0.58370937    -0.92370
C2741       C  0.09093838  0.41308869  0.98219948     1.01380
C2742       C  0.98799728  0.37795102  0.97370439     1.14320
C2743       C  0.05222498  0.48324139  0.53375215     1.05100
O2744       O  0.10086280  0.46144391  0.59175148    -0.94520
O2745       O  0.08953763  0.42442588  0.63055523    -0.90270
O2746       O  0.06772757  0.39011314  0.64858222    -0.83410
C2747       C  0.08743977  0.40546027  0.64871426     1.11740
O2748       O  0.96148874  0.44886621  0.56434766    -0.96500
Zr2749     Zr  0.98691762  0.41357906  0.58473229     1.88940
O2750       O  0.00040992  0.36485977  0.64327737    -0.73140
O2751       O  0.04061539  0.46681543  0.62428659    -0.52410
O2752       O  0.98500376  0.44541668  0.62340000    -0.97090
O2753       O  0.94105049  0.40610460  0.57410270    -0.54300
O2754       O  0.96749361  0.38862658  0.62440748    -0.73660
C2755       C  0.97643764  0.37227779  0.64275808     0.98680
O2756       O  0.05276230  0.33953975  0.64834197    -0.62480
O2757       O  0.01864279  0.32507643  0.49675952    -0.57280
O2758       O  0.04279905  0.32568125  0.59705393    -0.93970
O2759       O  0.02573591  0.31605008  0.55528918    -0.92390
O2760       O  0.09819336  0.35197078  0.50290189    -0.92750
O2761       O  0.11263582  0.34382003  0.55326079    -0.91530
C2762       C  0.02488627  0.31471274  0.58242682     1.17530
H2763       H  0.05026816  0.37340870  0.49385390     0.33470
H2764       H  0.09056747  0.38942028  0.59950770     0.44320
H2765       H  0.98846446  0.35771574  0.59120580     0.37850
H2766       H  0.01397264  0.45537805  0.55975940     0.34330
H2767       H  0.13915398  0.38380495  0.56094472     0.26110
H2768       H  0.05545128  0.47685631  0.63192432     0.32050
H2769       H  0.96861057  0.44161100  0.63386824     0.37960
H2770       H  0.08439945  0.33867600  0.50242713     0.32420
H2771       H  0.03388228  0.33096851  0.48540146     0.31300
H2772       H  0.95810603  0.36666614  0.52993668     0.32980
H2773       H  0.93143630  0.41392148  0.59052361     0.31950
H2774       H  0.10850461  0.33988185  0.57370933     0.35950
H2775       H  0.07199245  0.33916755  0.64766703     0.28680
H2776       H  0.02157214  0.45895020  0.96605265     0.32910
H2777       H  0.95461362  0.45870755  0.58106261     0.35760
H2778       H  0.02446429  0.30850940  0.50505553     0.28370
H2779       H  0.04756182  0.34698881  0.66716211     0.41240
H2780       H  0.11095455  0.45549186  0.57472203     0.31300
H2781       H  0.13076943  0.41208178  0.55323196     0.38920
H2782       H  0.93840166  0.38738369  0.57660250     0.30770
H2783       H  0.03071408  0.47928502  0.61241532     0.30830
H2784       H  0.99868630  0.46297501  0.48793244     0.31100
C2785       C  0.96256185  0.27366438  0.61671961    -0.05270
C2786       C  0.95643687  0.28863476  0.59295475    -0.02380
C2787       C  0.97720022  0.30196135  0.58006029     0.02610
C2788       C  0.00087352  0.30510347  0.59619188    -0.05270
C2789       C  0.00155820  0.29653276  0.62530174    -0.02370
C2790       C  0.97931821  0.28455060  0.63666617     0.02600
C2791       C  0.93267586  0.28300008  0.57743648     0.37250
C2792       C  0.02623731  0.29215173  0.63937670     0.37240
C2793       C  0.97915178  0.27320376  0.66477470     0.35670
C2794       C  0.97530829  0.30629776  0.54924693     0.35670
N2795       N  0.97780975  0.26218026  0.68624164    -0.39150
N2796       N  0.97265003  0.30847480  0.52452611    -0.39150
N2797       N  0.04648845  0.28763861  0.64894361    -0.38600
N2798       N  0.91365989  0.27880788  0.56497141    -0.38600
C2799       C  0.91557019  0.14788527  0.67630771    -0.05270
C2800       C  0.92468102  0.15399161  0.70401733    -0.02380
C2801       C  0.91481321  0.17625087  0.71748660     0.02610
C2802       C  0.88883364  0.18468677  0.71290420    -0.05270
C2803       C  0.87567741  0.17304394  0.68930279    -0.02370
C2804       C  0.88966302  0.15605676  0.66991174     0.02600
C2805       C  0.94911100  0.14302812  0.71393665     0.37250
C2806       C  0.84930908  0.18091488  0.68292820     0.37240
C2807       C  0.87789401  0.14785657  0.64312592     0.35670
C2808       C  0.93429482  0.19527353  0.72317395     0.35670
N2809       N  0.86826344  0.14106413  0.62187498    -0.39150
N2810       N  0.95032140  0.21075282  0.72395087    -0.39150
N2811       N  0.82816832  0.18716480  0.67787738    -0.38600
N2812       N  0.96861245  0.13438368  0.72183146    -0.38600
C2813       C  0.88971472  0.19296654  0.91963230    -0.05270
C2814       C  0.87992188  0.19830436  0.94739552    -0.02380
C2815       C  0.88983596  0.18485354  0.97131371     0.02610
C2816       C  0.91085007  0.16738471  0.96739673    -0.05270
C2817       C  0.91652496  0.15830873  0.93956940    -0.02370
C2818       C  0.90542090  0.17057384  0.91558065     0.02600
C2819       C  0.85964754  0.21751664  0.95132288     0.37250
C2820       C  0.93423893  0.13665371  0.93571994     0.37240
C2821       C  0.91151013  0.16016339  0.88735309     0.35670
C2822       C  0.87862555  0.18975445  0.99955102     0.35670
N2823       N  0.91728055  0.15029048  0.86585994    -0.39150
N2824       N  0.86885280  0.19384266  0.52157956    -0.39150
N2825       N  0.94832390  0.11941688  0.93268287    -0.38600
N2826       N  0.84338458  0.23271889  0.95453844    -0.38600
C2827       C  0.92496202  0.33309124  0.70411038    -0.05270
C2828       C  0.93894384  0.35554986  0.71234023    -0.02380
C2829       C  0.95701479  0.36719148  0.69305039     0.02610
C2830       C  0.95762990  0.36002685  0.66368396    -0.05270
C2831       C  0.93949663  0.34143126  0.65415453    -0.02370
C2832       C  0.92511215  0.32646126  0.67438056     0.02600
C2833       C  0.93345458  0.36826592  0.73949085     0.37250
C2834       C  0.93386722  0.33956084  0.62363059     0.37240
C2835       C  0.90946521  0.30510449  0.66429674     0.35670
C2836       C  0.97423330  0.38734721  0.70315256     0.35670
N2837       N  0.89705134  0.28799066  0.65620067    -0.39150
N2838       N  0.98811364  0.40335729  0.71114124    -0.39150
N2839       N  0.92855668  0.33931288  0.59935460    -0.38600
N2840       N  0.92901018  0.37962417  0.76047481    -0.38600
C2841       C  0.94269830  0.33228333  0.91379550    -0.05270
C2842       C  0.97045392  0.33405042  0.91272231    -0.02380
C2843       C  0.98427003  0.35349846  0.92781737     0.02610
C2844       C  0.97172059  0.36942303  0.94822599    -0.05270
C2845       C  0.94419183  0.36700134  0.95078484    -0.02370
C2846       C  0.92973173  0.34941725  0.93297820     0.02600
C2847       C  0.98567494  0.31406155  0.89878561     0.37250
C2848       C  0.93081266  0.38221306  0.97248767     0.37240
C2849       C  0.90164048  0.34872932  0.93495511     0.35670
C2850       C  0.01221744  0.35611891  0.92381456     0.35670
N2851       N  0.87916883  0.34833183  0.93676600    -0.39150
N2852       N  0.03441119  0.35870041  0.92057802    -0.39150
N2853       N  0.92018081  0.39437684  0.98989122    -0.38600
N2854       N  0.99884847  0.29823673  0.88891179    -0.38600
C2855       C  0.14931403  0.36808069  0.69913940    -0.05270
C2856       C  0.13464562  0.35821101  0.67612103    -0.02380
C2857       C  0.11042015  0.36935729  0.67169115     0.02610
C2858       C  0.11005597  0.39596532  0.66736693    -0.05270
C2859       C  0.12917504  0.40990810  0.68357337    -0.02370
C2860       C  0.14695090  0.39558591  0.70231397     0.02600
C2861       C  0.14173828  0.33500093  0.66076041     0.37250
C2862       C  0.12872023  0.43770318  0.68350703     0.37240
C2863       C  0.16188577  0.40873118  0.72416884     0.35670
C2864       C  0.09130632  0.36218133  0.69319405     0.35670
N2865       N  0.17385387  0.41930840  0.74167760    -0.39150
N2866       N  0.07616179  0.35829319  0.71120556    -0.39150
N2867       N  0.12837898  0.45999689  0.68337235    -0.38600
N2868       N  0.14758526  0.31652957  0.64827344    -0.38600
C2869       C  0.12681466  0.37809630  0.90984032    -0.05270
C2870       C  0.13862230  0.37537319  0.93705875    -0.02380
C2871       C  0.13014936  0.39066936  0.96044796     0.02610
C2872       C  0.10828066  0.40720372  0.95715494    -0.05270
C2873       C  0.10020723  0.41352052  0.92903684    -0.02370
C2874       C  0.10967337  0.39930006  0.90531185     0.02600
C2875       C  0.15984471  0.35726933  0.94098138     0.37250
C2876       C  0.08203193  0.43461229  0.92453687     0.37240
C2877       C  0.10075126  0.40641856  0.87673218     0.35670
C2878       C  0.14429487  0.38917100  0.98743269     0.35670
N2879       N  0.09337447  0.41299510  0.85432291    -0.39150
N2880       N  0.15669617  0.38762746  0.50827118    -0.39150
N2881       N  0.06761221  0.45145750  0.92092516    -0.38600
N2882       N  0.17692208  0.34307417  0.94448210    -0.38600
C2883       C  0.07936438  0.24427771  0.91660605    -0.05270
C2884       C  0.06100912  0.25764404  0.93371572    -0.02380
C2885       C  0.04368641  0.24438973  0.95263790     0.02610
C2886       C  0.04623460  0.21746723  0.95825823    -0.05270
C2887       C  0.06519180  0.20399018  0.94154832    -0.02370
C2888       C  0.08088406  0.21710525  0.92033684     0.02600
C2889       C  0.05964658  0.28545892  0.93144530     0.37250
C2890       C  0.06864278  0.17660803  0.94603209     0.37240
C2891       C  0.09874335  0.20259041  0.90229563     0.35670
C2892       C  0.02121203  0.25838077  0.96329969     0.35670
N2893       N  0.11298938  0.19101135  0.88780729    -0.39150
N2894       N  0.00302005  0.27015965  0.96999074    -0.39150
N2895       N  0.07143849  0.15470506  0.94954344    -0.38600
N2896       N  0.05907566  0.30768149  0.92986384    -0.38600
C2897       C  0.10575425  0.21811589  0.70875245    -0.05270
C2898       C  0.08567135  0.20179317  0.71919432    -0.02380
C2899       C  0.06799422  0.18987486  0.69980274     0.02610
C2900       C  0.07018147  0.19391131  0.66969408    -0.05270
C2901       C  0.09101290  0.20925902  0.65919984    -0.02370
C2902       C  0.10870252  0.22108653  0.67855063     0.02600
C2903       C  0.08178095  0.19881665  0.75005656     0.37250
C2904       C  0.09291110  0.21507529  0.62860850     0.37240
C2905       C  0.12890759  0.23793274  0.66746030     0.35670
C2906       C  0.04712955  0.17387429  0.71090204     0.35670
N2907       N  0.14493973  0.25149490  0.65868094    -0.39150
N2908       N  0.03041414  0.16114995  0.71970096    -0.39150
N2909       N  0.09449371  0.22015351  0.60431890    -0.38600
N2910       N  0.07847143  0.19633646  0.77464914    -0.38600
C2911       C  0.03770853  0.30626852  0.73543327    -0.05270
C2912       C  0.01806161  0.32337650  0.74359673    -0.02380
C2913       C  0.99447858  0.31285828  0.75235344     0.02610
C2914       C  0.99071832  0.28614959  0.74874073    -0.05270
C2915       C  0.00942449  0.27043195  0.73538120    -0.02370
C2916       C  0.03138859  0.28211847  0.72445813     0.02600
C2917       C  0.02408430  0.35014537  0.74949682     0.37250
C2918       C  0.00757588  0.24244720  0.73543153     0.37240
C2919       C  0.05008029  0.26726753  0.70838207     0.35670
C2920       C  0.97668568  0.32860120  0.76906559     0.35670
N2921       N  0.06391679  0.25493078  0.69438352    -0.39150
N2922       N  0.96393814  0.34156525  0.78375032    -0.39150
N2923       N  0.00690557  0.22017066  0.73562803    -0.38600
N2924       N  0.02839866  0.37157231  0.75440717    -0.38600
C2925       C  0.55899788  0.26870530  0.63383923    -0.05270
C2926       C  0.56537568  0.28438477  0.65692498    -0.02380
C2927       C  0.54402391  0.29619884  0.67067395     0.02610
C2928       C  0.51995741  0.29849922  0.65490882    -0.05270
C2929       C  0.51948504  0.29054510  0.62547405    -0.02370
C2930       C  0.54231005  0.27974470  0.61385516     0.02600
C2931       C  0.58978941  0.27972296  0.67166455     0.37250
C2932       C  0.49503632  0.28599867  0.61094028     0.37240
C2933       C  0.54467923  0.27177250  0.58422292     0.35670
C2934       C  0.54629017  0.29995048  0.70154619     0.35670
N2935       N  0.54798989  0.26514667  0.56068663    -0.39150
N2936       N  0.55020044  0.30208157  0.72604642    -0.39150
N2937       N  0.47522992  0.28134834  0.60031702    -0.38600
N2938       N  0.60923530  0.27599425  0.68352463    -0.38600
C2939       C  0.28411872  0.32071510  0.89399980    -0.05270
C2940       C  0.27948364  0.33453002  0.86844315    -0.02380
C2941       C  0.25402274  0.33644982  0.85736372     0.02610
C2942       C  0.23283423  0.32374050  0.87143577    -0.05270
C2943       C  0.23767430  0.31173258  0.89861828    -0.02370
C2944       C  0.26318008  0.30998706  0.90944841     0.02600
C2945       C  0.30096853  0.34714374  0.85365119     0.37250
C2946       C  0.21702914  0.30074362  0.91612296     0.37240
C2947       C  0.26800623  0.29586597  0.93603259     0.35670
C2948       C  0.25025095  0.35214864  0.83177072     0.35670
N2949       N  0.27154497  0.28446291  0.95713354    -0.39150
N2950       N  0.24815670  0.36486051  0.81137574    -0.39150
N2951       N  0.20136843  0.29191759  0.93115821    -0.38600
N2952       N  0.31789693  0.35729992  0.84168989    -0.38600
C2953       C  0.37481945  0.37910487  0.54770879    -0.05270
C2954       C  0.38996974  0.40138200  0.54225243    -0.02380
C2955       C  0.40564594  0.41221651  0.56436753     0.02610
C2956       C  0.40590319  0.40100309  0.59209160    -0.05270
C2957       C  0.38723098  0.38167540  0.59854669    -0.02370
C2958       C  0.37144749  0.37120971  0.57650992     0.02600
C2959       C  0.39129876  0.41164281  0.51320587     0.37250
C2960       C  0.38609037  0.37030052  0.62710498     0.37240
C2961       C  0.35398409  0.34995979  0.58266401     0.35670
C2962       C  0.42322111  0.43326058  0.55797052     0.35670
N2963       N  0.34000700  0.33301622  0.58741824    -0.39150
N2964       N  0.43723234  0.45011530  0.55293794    -0.39150
N2965       N  0.38483808  0.36044143  0.64948073    -0.38600
N2966       N  0.39261347  0.42028189  0.99015106    -0.38600
C2967       C  0.43026360  0.39308239  0.80540593    -0.05270
C2968       C  0.41312341  0.40813275  0.82238777    -0.02380
C2969       C  0.39309015  0.39597998  0.83856132     0.02610
C2970       C  0.38871178  0.36906794  0.83541421    -0.05270
C2971       C  0.40245573  0.35587927  0.81368453    -0.02370
C2972       C  0.42538118  0.36648875  0.80291920     0.02600
C2973       C  0.41681245  0.43576363  0.82406356     0.37250
C2974       C  0.39390191  0.33096462  0.80291760     0.37240
C2975       C  0.44480399  0.34877629  0.79257793     0.35670
C2976       C  0.37656277  0.41125534  0.85740888     0.35670
N2977       N  0.45927280  0.33286360  0.78565413    -0.39150
N2978       N  0.36332827  0.42355497  0.87232866    -0.39150
N2979       N  0.38701626  0.31125265  0.79410888    -0.38600
N2980       N  0.41985304  0.45781571  0.82545615    -0.38600
C2981       C  0.46610194  0.20570281  0.58263346    -0.05270
C2982       C  0.46896133  0.20294349  0.55252164    -0.02380
C2983       C  0.45343430  0.21779434  0.53370480     0.02610
C2984       C  0.43501197  0.23555001  0.54498660    -0.05270
C2985       C  0.43209932  0.23825099  0.57504903    -0.02370
C2986       C  0.44740879  0.22325203  0.59384121     0.02600
C2987       C  0.48763022  0.18458214  0.54094711     0.37250
C2988       C  0.41332701  0.25653493  0.58662523     0.37240
C2989       C  0.44431538  0.22666252  0.62477505     0.35670
C2990       C  0.45724695  0.21548598  0.50271899     0.35670
N2991       N  0.44141702  0.22975281  0.64934202    -0.39150
N2992       N  0.46084178  0.21364930  0.97798620    -0.39150
N2993       N  0.39840562  0.27117270  0.59580677    -0.38600
N2994       N  0.50256880  0.16997316  0.53174017    -0.38600
C2995       C  0.43678654  0.24270569  0.83300820    -0.05270
C2996       C  0.43081726  0.21689382  0.82525362    -0.02380
C2997       C  0.44688164  0.20270489  0.80514319     0.02610
C2998       C  0.47003668  0.21358614  0.79332679    -0.05270
C2999       C  0.47641953  0.23896584  0.80257706    -0.02370
C3000       C  0.45958376  0.25347164  0.82078868     0.02600
C3001       C  0.40855513  0.20466284  0.83863819     0.37250
C3002       C  0.50167494  0.24996739  0.79596257     0.37240
C3003       C  0.46642561  0.27988210  0.82752249     0.35670
C3004       C  0.43953529  0.17686367  0.79678957     0.35670
N3005       N  0.47243059  0.30088202  0.83238356    -0.39150
N3006       N  0.43365820  0.15617156  0.79018636    -0.39150
N3007       N  0.52175600  0.25959356  0.79263588    -0.38600
N3008       N  0.39079628  0.19488542  0.84945817    -0.38600
C3009       C  0.79142125  0.24101883  0.87598082    -0.05270
C3010       C  0.77281180  0.22286319  0.86587289    -0.02380
C3011       C  0.74713635  0.22296666  0.87693778     0.02610
C3012       C  0.73957711  0.24098407  0.89801217    -0.05270
C3013       C  0.75827115  0.25721503  0.91034547    -0.02370
C3014       C  0.78420881  0.25677443  0.90016778     0.02600
C3015       C  0.77993311  0.20291652  0.84538355     0.37250
C3016       C  0.75057565  0.27488652  0.93325007     0.37240
C3017       C  0.80295168  0.27219734  0.91583502     0.35670
C3018       C  0.72843398  0.20394034  0.86746314     0.35670
N3019       N  0.81712775  0.28429101  0.92967737    -0.39150
N3020       N  0.71333436  0.18864285  0.86066059    -0.39150
N3021       N  0.74445715  0.28900555  0.95143681    -0.38600
N3022       N  0.78478989  0.18641066  0.82941970    -0.38600
C3023       C  0.63148432  0.18386826  0.54436833    -0.05270
C3024       C  0.63204284  0.15636050  0.54366698    -0.02380
C3025       C  0.61608250  0.14168431  0.56367644     0.02610
C3026       C  0.59569927  0.15432815  0.57926553    -0.05270
C3027       C  0.59433317  0.18131151  0.57536638    -0.02370
C3028       C  0.61632715  0.19481337  0.56641410     0.02600
C3029       C  0.64801561  0.14348195  0.52232740     0.37250
C3030       C  0.56970103  0.19468312  0.57308374     0.37240
C3031       C  0.61889750  0.22185159  0.57361656     0.35670
C3032       C  0.61842130  0.11400486  0.56531596     0.35670
N3033       N  0.62092471  0.24337157  0.57954398    -0.39150
N3034       N  0.62032338  0.09182076  0.56666276    -0.39150
N3035       N  0.55029807  0.20554081  0.56966814    -0.38600
N3036       N  0.66084180  0.13321881  0.50520038    -0.38600
C3037       C  0.62929461  0.20189804  0.81835830    -0.05270
C3038       C  0.60407594  0.21008867  0.81083391    -0.02380
C3039       C  0.58538490  0.19190257  0.80277133     0.02610
C3040       C  0.59333256  0.16734120  0.79306434    -0.05270
C3041       C  0.61975737  0.16013082  0.79613906    -0.02370
C3042       C  0.63730573  0.17685068  0.81023417     0.02600
C3043       C  0.59737675  0.23717933  0.80975466     0.37250
C3044       C  0.62862056  0.13512256  0.78603459     0.37240
C3045       C  0.66391180  0.16870686  0.81484721     0.35670
C3046       C  0.55811590  0.19840829  0.80601545     0.35670
N3047       N  0.68508995  0.16152200  0.81754856    -0.39150
N3048       N  0.53635915  0.20318214  0.80968276    -0.39150
N3049       N  0.63572821  0.11521944  0.77787897    -0.38600
N3050       N  0.59172134  0.25871312  0.80801853    -0.38600
C3051       C  0.57890161  0.31918034  0.54132244    -0.05270
C3052       C  0.58667002  0.31920636  0.57049421    -0.02380
C3053       C  0.57315383  0.33446152  0.59113745     0.02610
C3054       C  0.55080928  0.34888930  0.58310488    -0.05270
C3055       C  0.54470754  0.35071530  0.55346531    -0.02370
C3056       C  0.56008519  0.33754468  0.53269039     0.02600
C3057       C  0.61050508  0.30622600  0.57863261     0.37250
C3058       C  0.52340285  0.36705762  0.54413169     0.37240
C3059       C  0.55934182  0.34584177  0.50289816     0.35670
C3060       C  0.58306843  0.33587751  0.62034230     0.35670
N3061       N  0.55984218  0.35370553  0.47953470    -0.39150
N3062       N  0.59187527  0.33714578  0.64326733    -0.39150
N3063       N  0.50625269  0.37989412  0.53666153    -0.38600
N3064       N  0.63004639  0.29694633  0.58539320    -0.38600
C3065       C  0.56833808  0.36382113  0.79122344    -0.05270
C3066       C  0.58859342  0.34680095  0.78180205    -0.02380
C3067       C  0.60359850  0.33224048  0.80187073     0.02610
C3068       C  0.60012190  0.33564594  0.83180464    -0.05270
C3069       C  0.58346420  0.35617987  0.84091609    -0.02370
C3070       C  0.56698681  0.36931730  0.82104409     0.02600
C3071       C  0.59499509  0.34445937  0.75144970     0.37250
C3072       C  0.58336392  0.36422212  0.87088678     0.37240
C3073       C  0.54747922  0.38726196  0.83162414     0.35670
C3074       C  0.62171136  0.31278768  0.79161266     0.35670
N3075       N  0.53181745  0.40149593  0.84005780    -0.39150
N3076       N  0.63615568  0.29725684  0.78339524    -0.39150
N3077       N  0.58331517  0.37183242  0.89440512    -0.38600
N3078       N  0.60196828  0.34213349  0.72777601    -0.38600
C3079       C  0.53027462  0.27583649  0.95960158    -0.05270
C3080       C  0.52353505  0.27721110  0.98945142    -0.02380
C3081       C  0.51378185  0.30052376  0.00058233     0.02610
C3082       C  0.50464740  0.31861372  0.98103176    -0.05270
C3083       C  0.51802731  0.32112211  0.95513646    -0.02370
C3084       C  0.52665442  0.29823067  0.94208115     0.02600
C3085       C  0.52059884  0.25402095  0.50658773     0.37250
C3086       C  0.51477745  0.34475630  0.93883489     0.37240
C3087       C  0.52696696  0.29772759  0.91079875     0.35670
C3088       C  0.50527839  0.30320643  0.53006345     0.35670
N3089       N  0.52688397  0.29983336  0.88591100    -0.39150
N3090       N  0.49812555  0.30709670  0.55331488    -0.39150
N3091       N  0.51229759  0.36363288  0.92583841    -0.38600
N3092       N  0.51725771  0.23559300  0.52012315    -0.38600
C3093       C  0.54603708  0.05827232  0.74225971    -0.05270
C3094       C  0.52353947  0.04571837  0.75261747    -0.02380
C3095       C  0.52553752  0.02108105  0.76475814     0.02610
C3096       C  0.54981180  0.00839318  0.76554785    -0.05270
C3097       C  0.57237420  0.02076028  0.75524972    -0.02370
C3098       C  0.57054167  0.04583144  0.74374095     0.02600
C3099       C  0.49798698  0.05732941  0.74925864     0.37250
C3100       C  0.59722575  0.00744839  0.75590479     0.37240
C3101       C  0.59383640  0.05885574  0.73368555     0.35670
C3102       C  0.50247819  0.00891640  0.77672482     0.35670
N3103       N  0.61242800  0.06923820  0.72567766    -0.39150
N3104       N  0.48392089  0.99962109  0.78632062    -0.39150
N3105       N  0.61700951  0.99674236  0.75636453    -0.38600
N3106       N  0.47740343  0.06604773  0.74644047    -0.38600
C3107       C  0.47324779  0.55299015  0.76125861    -0.05270
C3108       C  0.44970300  0.54172232  0.75196696    -0.02380
C3109       C  0.44996039  0.51714491  0.73863031     0.02610
C3110       C  0.47385499  0.50418693  0.73389480    -0.05270
C3111       C  0.49739079  0.51621367  0.74188588    -0.02370
C3112       C  0.49700968  0.53986774  0.75658260     0.02600
C3113       C  0.42535360  0.55549040  0.75585606     0.37250
C3114       C  0.52224493  0.50462778  0.73417547     0.37240
C3115       C  0.52112712  0.54995868  0.76830487     0.35670
C3116       C  0.42568361  0.50502170  0.73044259     0.35670
N3117       N  0.54038323  0.55754507  0.77799888    -0.39150
N3118       N  0.40626068  0.49540229  0.72392574    -0.39150
N3119       N  0.54209930  0.49569409  0.72772481    -0.38600
N3120       N  0.40592239  0.56651214  0.75889327    -0.38600
C3121       C  0.51433603  0.75601225  0.88402222    -0.05270
C3122       C  0.49498827  0.77494555  0.88526931    -0.02380
C3123       C  0.50101287  0.79912410  0.87511679     0.02610
C3124       C  0.52687075  0.80496233  0.86856930    -0.05270
C3125       C  0.54707294  0.78698112  0.87177623    -0.02370
C3126       C  0.54077797  0.76222420  0.88031661     0.02600
C3127       C  0.46804013  0.76923199  0.89204230     0.37250
C3128       C  0.57367382  0.79301662  0.86358882     0.37240
C3129       C  0.56067761  0.74223164  0.88068332     0.35670
C3130       C  0.48004441  0.81663737  0.86824131     0.35670
N3131       N  0.57660558  0.72642691  0.88071430    -0.39150
N3132       N  0.46224640  0.82871957  0.86137467    -0.39150
N3133       N  0.59497477  0.79689485  0.85663333    -0.38600
N3134       N  0.44604273  0.76714854  0.89679887    -0.38600
C3135       C  0.42708071  0.84042596  0.95672324    -0.05270
C3136       C  0.44810258  0.85503516  0.96789975    -0.02380
C3137       C  0.46440559  0.86957488  0.94922376     0.02610
C3138       C  0.45902609  0.87105841  0.91936348    -0.05270
C3139       C  0.43531775  0.85990197  0.90940250    -0.02370
C3140       C  0.42063443  0.84325130  0.92742932     0.02600
C3141       C  0.45336397  0.85490762  0.99861594     0.37250
C3142       C  0.42526262  0.86546415  0.88089421     0.37240
C3143       C  0.39869873  0.82905592  0.91587425     0.35670
C3144       C  0.48579091  0.88435310  0.96104579     0.35670
N3145       N  0.38129497  0.81756574  0.90670009    -0.39150
N3146       N  0.50258652  0.89651433  0.97052228    -0.39150
N3147       N  0.41620943  0.86912366  0.85841387    -0.38600
N3148       N  0.45763237  0.85540426  0.52313663    -0.38600
C3149       C  0.47285080  0.85649791  0.70778386    -0.05270
C3150       C  0.46262934  0.83077379  0.71075290    -0.02380
C3151       C  0.44658256  0.81920407  0.68928690     0.02610
C3152       C  0.44326439  0.83060558  0.66195370    -0.05270
C3153       C  0.45419504  0.85555264  0.65791653    -0.02370
C3154       C  0.46779091  0.86871405  0.68076687     0.02600
C3155       C  0.47025706  0.81410177  0.73436025     0.37250
C3156       C  0.45085848  0.86808775  0.63020881     0.37240
C3157       C  0.47654944  0.89485058  0.67602290     0.35670
C3158       C  0.43417659  0.79461508  0.69522507     0.35670
N3159       N  0.48328469  0.91580717  0.67199384    -0.39150
N3160       N  0.42400010  0.77527236  0.70035853    -0.39150
N3161       N  0.44817434  0.87805503  0.60804842    -0.38600
N3162       N  0.47600104  0.79939733  0.75199070    -0.38600
C3163       C  0.37244483  0.68803241  0.95391009    -0.05270
C3164       C  0.37817694  0.69677816  0.92583633    -0.02380
C3165       C  0.39896148  0.68515961  0.91078270     0.02610
C3166       C  0.40513631  0.65862146  0.91424523    -0.05270
C3167       C  0.39385320  0.64668900  0.93900117    -0.02370
C3168       C  0.37919992  0.66185571  0.95978032     0.02600
C3169       C  0.36899427  0.72194699  0.91663251     0.37250
C3170       C  0.40011681  0.62008216  0.94500616     0.37240
C3171       C  0.37255169  0.65113413  0.98765763     0.35670
C3172       C  0.42018441  0.70241479  0.90546708     0.35670
N3173       N  0.36715229  0.64256529  0.00996631    -0.39150
N3174       N  0.43835378  0.71538822  0.90493816    -0.39150
N3175       N  0.40506641  0.59874227  0.94973212    -0.38600
N3176       N  0.36180599  0.74205453  0.90934461    -0.38600
C3177       C  0.41146184  0.70096101  0.66797772    -0.05270
C3178       C  0.43813303  0.70463318  0.67384457    -0.02380
C3179       C  0.45227453  0.68557555  0.68843951     0.02610
C3180       C  0.43915159  0.66509486  0.70224415    -0.05270
C3181       C  0.41213373  0.66182404  0.69732591    -0.02370
C3182       C  0.39860140  0.67916403  0.67925665     0.02600
C3183       C  0.45159137  0.72795319  0.66519036     0.37250
C3184       C  0.39841898  0.64022167  0.71009537     0.37240
C3185       C  0.37131441  0.67498855  0.67278017     0.35670
C3186       C  0.48044519  0.68719220  0.68858488     0.35670
N3187       N  0.34954763  0.67169386  0.66758201    -0.39150
N3188       N  0.50290651  0.68830717  0.68757194    -0.39150
N3189       N  0.38744043  0.62301029  0.72028730    -0.38600
N3190       N  0.46344056  0.74622168  0.65953652    -0.38600
C3191       C  0.58285158  0.72584610  0.96553589    -0.05270
C3192       C  0.59104363  0.70026437  0.95868459    -0.02380
C3193       C  0.57522328  0.68357747  0.94135812     0.02610
C3194       C  0.54969718  0.69101282  0.93265142    -0.05270
C3195       C  0.54116744  0.71577390  0.94176586    -0.02370
C3196       C  0.55869121  0.73375610  0.95384811     0.02600
C3197       C  0.61664484  0.69148630  0.96736954     0.37250
C3198       C  0.51399905  0.72300270  0.94015023     0.37240
C3199       C  0.55324195  0.76078412  0.94943682     0.35670
C3200       C  0.58522907  0.65842572  0.93336593     0.35670
N3201       N  0.54937532  0.78216718  0.94394305    -0.39150
N3202       N  0.59337676  0.63839533  0.92699525    -0.39150
N3203       N  0.49208764  0.72828494  0.94009638    -0.38600
N3204       N  0.63714020  0.68440236  0.97404175    -0.38600
C3205       C  0.55976315  0.70346740  0.71435912    -0.05270
C3206       C  0.55269810  0.72947109  0.70901142    -0.02380
C3207       C  0.57005883  0.74687700  0.69563106     0.02610
C3208       C  0.59295886  0.73813665  0.68123979    -0.05270
C3209       C  0.59938739  0.71157235  0.68448684    -0.02370
C3210       C  0.58355317  0.69471661  0.70199611     0.02600
C3211       C  0.52660374  0.73843570  0.71598865     0.37250
C3212       C  0.62200594  0.70145312  0.66960459     0.37240
C3213       C  0.59167860  0.66845553  0.70720742     0.35670
C3214       C  0.56411726  0.77426483  0.69728201     0.35670
N3215       N  0.59811336  0.64741735  0.71141684    -0.39150
N3216       N  0.55929180  0.79601661  0.69881714    -0.39150
N3217       N  0.64008433  0.69336553  0.65763115    -0.38600
N3218       N  0.50568046  0.74582204  0.72033167    -0.38600
C3219       C  0.60071203  0.90418120  0.92424983    -0.05270
C3220       C  0.62488494  0.91245382  0.93643485    -0.02380
C3221       C  0.63948843  0.89525621  0.95537979     0.02610
C3222       C  0.63336256  0.86837276  0.95646688    -0.05270
C3223       C  0.61333584  0.86070648  0.93778033    -0.02370
C3224       C  0.59390976  0.87848765  0.93087820     0.02600
C3225       C  0.63295684  0.93883062  0.93243728     0.37250
C3226       C  0.61111999  0.83415556  0.92830659     0.37240
C3227       C  0.56728071  0.87106038  0.93661320     0.35670
C3228       C  0.65998285  0.90513717  0.97352220     0.35670
N3229       N  0.54619259  0.86537319  0.94265747    -0.39150
N3230       N  0.67636441  0.91306415  0.98813606    -0.39150
N3231       N  0.60978166  0.81298102  0.92059851    -0.38600
N3232       N  0.63938874  0.95999182  0.92923417    -0.38600
C3233       C  0.62763206  0.86181336  0.67445899    -0.05270
C3234       C  0.64303881  0.87791140  0.69202763    -0.02380
C3235       C  0.63103635  0.89706818  0.70932745     0.02610
C3236       C  0.60380735  0.90136208  0.70732887    -0.05270
C3237       C  0.58996055  0.88883538  0.68524274    -0.02370
C3238       C  0.60064225  0.86700518  0.67211360     0.02600
C3239       C  0.67104071  0.87436215  0.69273298     0.37250
C3240       C  0.56446595  0.89789734  0.67604414     0.37240
C3241       C  0.58267977  0.84997463  0.65751661     0.35670
C3242       C  0.64676639  0.91275532  0.72840742     0.35670
N3243       N  0.56643512  0.83758534  0.64721922    -0.39150
N3244       N  0.65937780  0.92533702  0.74352985    -0.39150
N3245       N  0.54429504  0.90512701  0.66843905    -0.38600
N3246       N  0.69339044  0.87152156  0.69320577    -0.38600
C3247       C  0.53150566  0.78251334  0.52589760    -0.05270
C3248       C  0.52027335  0.79818649  0.50416083    -0.02380
C3249       C  0.50468570  0.78621007  0.48342408     0.02610
C3250       C  0.49528365  0.76190321  0.49047552    -0.05270
C3251       C  0.51206384  0.74468760  0.50403532    -0.02370
C3252       C  0.52866974  0.75515570  0.52467235     0.02600
C3253       C  0.52000257  0.82604216  0.00644115     0.37250
C3254       C  0.50565078  0.71739894  0.50461333     0.37240
C3255       C  0.53777539  0.73797919  0.54715234     0.35670
C3256       C  0.49214013  0.80044113  0.96055790     0.35670
N3257       N  0.54313227  0.72327470  0.56491507    -0.39150
N3258       N  0.48235733  0.81148361  0.94181951    -0.39150
N3259       N  0.50073902  0.69565387  0.50514264    -0.38600
N3260       N  0.51974984  0.84825754  0.00849395    -0.38600
C3261       C  0.97277288  0.01407269  0.98477695    -0.05270
C3262       C  0.99649127  0.02679387  0.99069484    -0.02380
C3263       C  0.99647276  0.05146528  0.50335245     0.02610
C3264       C  0.97272184  0.06382769  0.51021898    -0.05270
C3265       C  0.94896256  0.05133211  0.50406677    -0.02370
C3266       C  0.94896202  0.02652543  0.99132503     0.02600
C3267       C  0.02112092  0.01452013  0.98353102     0.37250
C3268       C  0.92452959  0.06408158  0.51076273     0.37240
C3269       C  0.92454996  0.01343378  0.98592942     0.35670
C3270       C  0.02102043  0.06373239  0.51044045     0.35670
N3271       N  0.90506753  0.00295528  0.98167312    -0.39150
N3272       N  0.04060589  0.07341718  0.51619624    -0.39150
N3273       N  0.90504853  0.07430059  0.51611374    -0.38600
N3274       N  0.04076688  0.00475738  0.97785987    -0.38600
C3275       C  0.05175970  0.56011208  0.99751717    -0.05270
C3276       C  0.07574086  0.54726084  0.00220048    -0.02380
C3277       C  0.07632013  0.52260580  0.51550412     0.02610
C3278       C  0.05293548  0.51075254  0.52454505    -0.05270
C3279       C  0.02911267  0.52387815  0.52055171    -0.02370
C3280       C  0.02842396  0.54810870  0.00669549     0.02600
C3281       C  0.09986449  0.55927542  0.99312691     0.37250
C3282       C  0.00496636  0.51208933  0.53017170     0.37240
C3283       C  0.00339349  0.55950729  0.99978510     0.35670
C3284       C  0.10076732  0.50894081  0.51876498     0.35670
N3285       N  0.98323856  0.56802383  0.99401639    -0.39150
N3286       N  0.12025725  0.49795696  0.52129885    -0.39150
N3287       N  0.98572933  0.50271980  0.53786439    -0.38600
N3288       N  0.11913790  0.56884613  0.98587133    -0.38600
C3289       C  0.01827941  0.74947079  0.87212128    -0.05270
C3290       C  0.03881915  0.76610733  0.87915805    -0.02380
C3291       C  0.03290585  0.78982386  0.89097171     0.02610
C3292       C  0.00690211  0.79503011  0.89845202    -0.05270
C3293       C  0.98642976  0.77833286  0.89188595    -0.02370
C3294       C  0.99214724  0.75584193  0.87721402     0.02600
C3295       C  0.06592683  0.75824119  0.87629737     0.37250
C3296       C  0.95994561  0.78352452  0.90151090     0.37240
C3297       C  0.97125713  0.73866403  0.86926107     0.35670
C3298       C  0.05331384  0.80896789  0.89418550     0.35670
N3299       N  0.95373419  0.72577094  0.86356681    -0.39150
N3300       N  0.06987901  0.82398819  0.89552765    -0.39150
N3301       N  0.93881523  0.78690408  0.90944648    -0.38600
N3302       N  0.08757394  0.75232773  0.87405314    -0.38600
C3303       C  0.79182910  0.81548004  0.63484959    -0.05270
C3304       C  0.77905343  0.79162446  0.63148674    -0.02380
C3305       C  0.75464542  0.79032359  0.61768334     0.02610
C3306       C  0.74212814  0.81300356  0.60794046    -0.05270
C3307       C  0.75519909  0.83686715  0.61061427    -0.02370
C3308       C  0.78006285  0.83804915  0.62386581     0.02600
C3309       C  0.79078519  0.76830020  0.64284982     0.37250
C3310       C  0.74282812  0.86027156  0.60047833     0.37240
C3311       C  0.79365196  0.86240876  0.62607616     0.35670
C3312       C  0.74278664  0.76536032  0.61266660     0.35670
N3313       N  0.80461139  0.88180733  0.62776368    -0.39150
N3314       N  0.73360541  0.74537768  0.60840688    -0.39150
N3315       N  0.73300498  0.87899167  0.59237751    -0.38600
N3316       N  0.79992069  0.74964090  0.65201959    -0.38600
C3317       C  0.93076077  0.71421909  0.78418961    -0.05270
C3318       C  0.91928703  0.70393967  0.80933204    -0.02380
C3319       C  0.93284996  0.68552262  0.82646189     0.02610
C3320       C  0.95886636  0.67800440  0.81938323    -0.05270
C3321       C  0.96889335  0.68619455  0.79233230    -0.02370
C3322       C  0.95516089  0.70432162  0.77519164     0.02600
C3323       C  0.89377883  0.71311954  0.81814862     0.37250
C3324       C  0.99317374  0.67537479  0.78162471     0.37240
C3325       C  0.96650321  0.71289301  0.74824248     0.35670
C3326       C  0.92010906  0.67575660  0.85214716     0.35670
N3327       N  0.97615071  0.71930229  0.72683453    -0.39150
N3328       N  0.90920966  0.66829961  0.87238553    -0.39150
N3329       N  0.01253737  0.66670348  0.77314878    -0.38600
N3330       N  0.87346821  0.72059614  0.82514871    -0.38600
C3331       C  0.94538679  0.74517092  0.58278357    -0.05270
C3332       C  0.94171846  0.71815467  0.57959678    -0.02380
C3333       C  0.95502648  0.70359244  0.55744699     0.02610
C3334       C  0.97288243  0.71550079  0.53799592    -0.05270
C3335       C  0.97690109  0.74251985  0.54196808    -0.02370
C3336       C  0.96311319  0.75702030  0.56347036     0.02600
C3337       C  0.92421194  0.70520305  0.59938266     0.37250
C3338       C  0.99696011  0.75546281  0.52542865     0.37240
C3339       C  0.96751169  0.78453601  0.56596226     0.35670
C3340       C  0.94995902  0.67629441  0.55459320     0.35670
N3341       N  0.97091346  0.80650905  0.56781934    -0.39150
N3342       N  0.94583274  0.65446884  0.55242475    -0.39150
N3343       N  0.01349692  0.76571472  0.51294438    -0.38600
N3344       N  0.91020172  0.69487567  0.61520260    -0.38600
C3345       C  0.88262625  0.86552798  0.80268700    -0.05270
C3346       C  0.90012159  0.85678278  0.82377625    -0.02380
C3347       C  0.92101909  0.87233845  0.83174646     0.02610
C3348       C  0.91762382  0.89912227  0.83509761    -0.05270
C3349       C  0.89621622  0.90964973  0.81935449    -0.02370
C3350       C  0.88060492  0.89308125  0.80070666     0.02600
C3351       C  0.89612982  0.83272856  0.83889443     0.37250
C3352       C  0.89229785  0.93719783  0.81954418     0.37240
C3353       C  0.86295106  0.90432546  0.78001160     0.35670
C3354       C  0.94655763  0.86245709  0.82474628     0.35670
N3355       N  0.84889700  0.91337009  0.76334544    -0.39150
N3356       N  0.96702156  0.85535448  0.81796344    -0.39150
N3357       N  0.88922206  0.95928993  0.81968594    -0.38600
N3358       N  0.89260699  0.81381855  0.85154348    -0.38600
C3359       C  0.89684641  0.88371238  0.59613754    -0.05270
C3360       C  0.88635270  0.88015742  0.56847506    -0.02380
C3361       C  0.89608863  0.89456400  0.54511565     0.02610
C3362       C  0.91813755  0.91081503  0.54902593    -0.05270
C3363       C  0.92517950  0.91769442  0.57731457    -0.02370
C3364       C  0.91379415  0.90488311  0.60096621     0.02600
C3365       C  0.86542066  0.86174422  0.56408772     0.37250
C3366       C  0.94406835  0.93801577  0.58207813     0.37240
C3367       C  0.92023698  0.91350283  0.62983030     0.35670
C3368       C  0.88305902  0.89190719  0.51761518     0.35670
N3369       N  0.92561893  0.92128703  0.65246221    -0.39150
N3370       N  0.87111104  0.88889083  0.99675221    -0.39150
N3371       N  0.95907744  0.95425546  0.58588270    -0.38600
N3372       N  0.84874038  0.84713182  0.56052655    -0.38600
C3373       C  0.24063313  0.75045452  0.64473763    -0.05270
C3374       C  0.25288939  0.72679329  0.63797535    -0.02380
C3375       C  0.27828207  0.72654006  0.62597934     0.02610
C3376       C  0.29143663  0.74994133  0.62054551    -0.05270
C3377       C  0.27923249  0.77353728  0.62768104    -0.02370
C3378       C  0.25421715  0.77375347  0.64024078     0.02600
C3379       C  0.23906151  0.70279065  0.64242542     0.37250
C3380       C  0.29168063  0.79779576  0.62049073     0.37240
C3381       C  0.24263469  0.79808206  0.64905375     0.35670
C3382       C  0.29089067  0.70223240  0.61924792     0.35670
N3383       N  0.23360643  0.81750016  0.65629783    -0.39150
N3384       N  0.30097764  0.68283658  0.61390542    -0.39150
N3385       N  0.30126872  0.81723359  0.61449347    -0.38600
N3386       N  0.22801448  0.68363170  0.64593646    -0.38600
C3387       C  0.05233038  0.86069977  0.83313854    -0.05270
C3388       C  0.04538147  0.83491847  0.82649508    -0.02380
C3389       C  0.06270329  0.81816701  0.81191058     0.02610
C3390       C  0.08540736  0.82748634  0.79809196    -0.05270
C3391       C  0.09217629  0.85377013  0.80370324    -0.02370
C3392       C  0.07617017  0.86985007  0.82157464     0.02600
C3393       C  0.01999957  0.82492532  0.83381489     0.37250
C3394       C  0.11611291  0.86451918  0.79227163     0.37240
C3395       C  0.08371415  0.89637505  0.82666559     0.35670
C3396       C  0.05734865  0.79089009  0.81309010     0.35670
N3397       N  0.08976218  0.91755669  0.83057800    -0.39150
N3398       N  0.05277893  0.76919248  0.81495163    -0.39150
N3399       N  0.13520182  0.87341776  0.78347904    -0.38600
N3400       N  0.99972981  0.81628611  0.83851282    -0.38600
C3401       C  0.09573366  0.84169232  0.58539886    -0.05270
C3402       C  0.08096197  0.86400651  0.59329248    -0.02380
C3403       C  0.06425210  0.87700294  0.57311748     0.02610
C3404       C  0.06085269  0.86749089  0.54467552    -0.05270
C3405       C  0.07714289  0.84595972  0.53659842    -0.02370
C3406       C  0.09538524  0.83468216  0.55610521     0.02600
C3407       C  0.08327580  0.87416843  0.62230362     0.37250
C3408       C  0.07425663  0.83291624  0.50914402     0.37240
C3409       C  0.11325157  0.81482382  0.54614785     0.35670
C3410       C  0.04894904  0.89894291  0.58253069     0.35670
N3411       N  0.12770489  0.79925101  0.53803582    -0.39150
N3412       N  0.03669673  0.91645154  0.59008787    -0.39150
N3413       N  0.07293729  0.82036475  0.98852216    -0.38600
N3414       N  0.08507207  0.88314445  0.64511400    -0.38600
C3415       C  0.09498330  0.67816912  0.53904319    -0.05270
C3416       C  0.12024429  0.66979836  0.54655046    -0.02380
C3417       C  0.13605185  0.68540432  0.56437832     0.02610
C3418       C  0.12771031  0.71050522  0.57221696    -0.05270
C3419       C  0.10343120  0.71949949  0.56206610    -0.02370
C3420       C  0.08626244  0.70246149  0.54850051     0.02600
C3421       C  0.12934750  0.64467175  0.53717391     0.37250
C3422       C  0.09493168  0.74586066  0.56633112     0.37240
C3423       C  0.05920828  0.70986431  0.54552502     0.35670
C3424       C  0.16096251  0.67578804  0.57440541     0.35670
N3425       N  0.03756046  0.71584572  0.54450671    -0.39150
N3426       N  0.18080522  0.66809133  0.58249220    -0.39150
N3427       N  0.08688088  0.76656898  0.56889585    -0.38600
N3428       N  0.13655740  0.62458423  0.52972799    -0.38600
C3429       C  0.13397100  0.67921190  0.78685209    -0.05270
C3430       C  0.11627617  0.65990744  0.77769178    -0.02380
C3431       C  0.10338011  0.64356551  0.79793202     0.02610
C3432       C  0.10820726  0.64545132  0.82803027    -0.05270
C3433       C  0.12903517  0.66182953  0.83655409    -0.02370
C3434       C  0.14106024  0.67915226  0.81640067     0.02600
C3435       C  0.10997170  0.65776356  0.74729740     0.37250
C3436       C  0.13749431  0.66187818  0.86629400     0.37240
C3437       C  0.15975292  0.69798579  0.82637479     0.35670
C3438       C  0.08414276  0.62530146  0.78775826     0.35670
N3439       N  0.17468964  0.71306473  0.83429475    -0.39150
N3440       N  0.06876945  0.61073380  0.77967045    -0.39150
N3441       N  0.14497439  0.66181741  0.88983880    -0.38600
N3442       N  0.10479761  0.65557680  0.72310428    -0.38600
C3443       C  0.99773259  0.81290622  0.76036806    -0.05270
C3444       C  0.00458660  0.78941350  0.77290433    -0.02380
C3445       C  0.02166608  0.77351569  0.75734573     0.02610
C3446       C  0.03261366  0.78307527  0.73133651    -0.05270
C3447       C  0.02975448  0.80983692  0.72452492    -0.02370
C3448       C  0.01657491  0.82556855  0.74427859     0.02600
C3449       C  0.98774267  0.77822986  0.79464983     0.37250
C3450       C  0.03161483  0.81959828  0.69525559     0.37240
C3451       C  0.01339628  0.85293210  0.73898376     0.35670
C3452       C  0.02287461  0.74654130  0.76503392     0.35670
N3453       N  0.01096429  0.87470173  0.73430655    -0.39150
N3454       N  0.02277007  0.72522896  0.77219068    -0.39150
N3455       N  0.03139265  0.82801614  0.67209006    -0.38600
N3456       N  0.97457461  0.76858500  0.81180358    -0.38600
loop_ 
_geom_bond_atom_site_label_1 
_geom_bond_atom_site_label_2 
_geom_bond_distance 
_geom_bond_site_symmetry_2 
_ccdc_geom_bond_type 
Zr1           O2   2.439       .  S
Zr1           O3   2.450       .  S
Zr1           O4   2.435       .  S
Zr1           O7   2.575       .  S
Zr1           O9   2.430       .  S
Zr1          O10   2.366       .  S
Zr1          O11   2.452       .  S
Zr1          O12   2.367       .  S
O2           H58   0.990       .  S
O2           H66   0.989       .  S
O3           C23   1.281       .  A
O4           C25   1.287       .  A
O5          Zr15   2.386       .  S
O5           C24   1.274       .  A
O6          Zr14   2.450       .  S
O6           C25   1.289       .  A
O7           C24   1.314       .  A
O8          Zr16   2.404       .  S
O8           C23   1.269       .  A
O9          Zr14   2.421       .  S
O9          Zr16   2.365       .  S
O10         Zr15   2.352       .  S
O10         Zr16   2.384       .  S
O10          H45   0.958       .  S
O11         Zr14   2.439       .  S
O11         Zr31   2.401       .  S
O11          H48   0.966       .  S
O12         Zr15   2.376       .  S
O12         Zr31   2.414       .  S
Zr13         O38   2.432       .  S
Zr13         O32   2.491       .  S
Zr13         O40   2.415       .  S
Zr13         O28   2.426       .  S
Zr13         O19   2.410       .  S
Zr13         O20   2.410       .  S
Zr13         O21   2.377       .  S
Zr13         O22   2.386       .  S
Zr14         O33   2.433       .  S
Zr14         O26   2.434       .  S
Zr14         O27   2.552       .  S
Zr14         O20   2.376       .  S
Zr14         O21   2.392       .  S
Zr15         O17   2.441       .  S
Zr15         O39   2.448       .  S
Zr15         O41   2.392       .  S
Zr15         O19   2.398       .  S
Zr15         O22   2.393       .  S
Zr16         O42   2.435       .  S
Zr16         O43   2.441       .  S
Zr16         O18   2.438       .  S
Zr16         O19   2.377       .  S
Zr16         O20   2.374       .  S
O17          H54   0.987       .  S
O18          H49   0.990       .  S
O18          H63   0.990       .  S
O20          H46   0.961       .  S
O21         Zr31   2.391       .  S
O22         Zr31   2.393       .  S
O22          H47   0.963       .  S
C23        C1690   1.483       .  S
C24        C1673   1.533       .  S
C25        C1645   1.485       .  S
O26          H62   0.990       .  S
O27          C29   1.307       .  A
O28          C29   1.280       .  A
C29        C1701   1.525       .  S
O30         Zr31   2.443       .  S
O30          H59   0.990       .  S
Zr31         O34   2.436       .  S
Zr31         O35   2.444       .  S
Zr31         O36   2.441       .  S
O32          C37   1.298       .  A
O33          H50   0.990       .  S
O33          H65   0.990       .  S
O34          H51   0.990       .  S
O35          H55   0.989       .  S
O35          H64   0.990       .  S
O36          C37   1.283       .  A
C37        C1662   1.534       .  S
O38          H57   0.983       .  S
O38          H61   0.990       .  S
O39          H53   0.990       .  S
O39          H60   0.988       .  S
O40          C44   1.274       .  A
O41          C44   1.263       .  A
O42          H52   0.990       .  S
O43          H56   0.990       .  S
C44        C1718   1.460       .  S
Zr67         O68   2.442       .  S
Zr67         O69   2.460       .  S
Zr67         O70   2.447       .  S
Zr67         O73   2.537       .  S
Zr67         O75   2.408       .  S
Zr67         O76   2.383       .  S
Zr67         O77   2.435       .  S
Zr67         O78   2.395       .  S
O68         H124   0.990       .  S
O68         H132   0.991       .  S
O69          C89   1.289       .  A
O70          C91   1.287       .  A
O71         Zr81   2.456       .  S
O71          C90   1.287       .  A
O72         Zr80   2.461       .  S
O72          C91   1.290       .  A
O73          C90   1.304       .  A
O74         Zr82   2.383       .  S
O74          C89   1.268       .  A
O75         Zr80   2.410       .  S
O75         Zr82   2.366       .  S
O76         Zr81   2.382       .  S
O76         Zr82   2.386       .  S
O76         H111   0.966       .  S
O77         Zr80   2.448       .  S
O77         Zr97   2.406       .  S
O77         H114   0.965       .  S
O78         Zr81   2.402       .  S
O78         Zr97   2.409       .  S
Zr79        O104   2.422       .  S
Zr79         O98   2.486       .  S
Zr79        O106   2.337       .  S
Zr79         O94   2.456       .  S
Zr79         O85   2.421       .  S
Zr79         O86   2.397       .  S
Zr79         O87   2.357       .  S
Zr79         O88   2.387       .  S
Zr80         O99   2.433       .  S
Zr80         O92   2.434       .  S
Zr80         O93   2.541       .  S
Zr80         O86   2.397       .  S
Zr80         O87   2.415       .  S
Zr81         O83   2.428       .  S
Zr81        O105   2.432       .  S
Zr81        O107   2.500       .  S
Zr81         O85   2.352       .  S
Zr81         O88   2.369       .  S
Zr82        O108   2.443       .  S
Zr82        O109   2.439       .  S
Zr82         O84   2.448       .  S
Zr82         O85   2.372       .  S
Zr82         O86   2.365       .  S
O83         H120   0.990       .  S
O84         H115   0.988       .  S
O84         H129   0.990       .  S
O86         H112   0.962       .  S
O87         Zr97   2.400       .  S
O88         Zr97   2.374       .  S
O88         H113   0.961       .  S
C89        C1631   1.482       .  S
C90        C1603   1.540       .  S
C91        C1575   1.490       .  S
O92         H128   0.990       .  S
O93          C95   1.298       .  A
O94          C95   1.284       .  A
C95        C1617   1.547       .  S
O96         Zr97   2.438       .  S
O96         H125   0.990       .  S
Zr97        O100   2.437       .  S
Zr97        O101   2.437       .  S
Zr97        O102   2.454       .  S
O98         C103   1.290       .  A
O99         H116   0.990       .  S
O99         H131   0.990       .  S
O100        H117   0.990       .  S
O101        H121   0.990       .  S
O101        H130   0.990       .  S
O102        C103   1.285       .  A
C103       C1589   1.506       .  S
O104        H123   0.982       .  S
O104        H127   0.989       .  S
O105        H119   0.987       .  S
O105        H126   0.990       .  S
O106        C110   1.260       .  A
O107        C110   1.305       .  A
O108        H118   0.989       .  S
O109        H122   0.990       .  S
C110       C1715   1.454       .  S
Zr133       O134   2.438   1_455  S
Zr133       O136   2.453       .  S
Zr133      O1863   2.433       .  S
Zr133      O1867   2.544   1_455  S
Zr133       O141   2.418       .  S
Zr133       O142   2.382       .  S
Zr133       O143   2.441       .  S
Zr133       O144   2.402   1_455  S
O134        H198   0.989       .  S
O134       H1918   0.989   1_655  S
O135      Zr1861   2.433   1_554  S
O135        C155   1.281       .  A
O136        C157   1.291       .  A
O137       Zr147   2.455   1_655  S
O137       C1884   1.288       .  A
O138       Zr146   2.462       .  S
O138        C157   1.292       .  A
O139      Zr1861   2.544   1_654  S
O139        C156   1.306       .  A
O140       Zr148   2.411       .  S
O140       C1883   1.270       .  A
O141       Zr146   2.415       .  S
O141       Zr148   2.363       .  S
O142       Zr147   2.372       .  S
O142       Zr148   2.378       .  S
O142        H177   0.963       .  S
O143       Zr146   2.440       .  S
O143       Zr163   2.399   1_455  S
O143        H180   0.965       .  S
O144       Zr147   2.399   1_655  S
O144       Zr163   2.433       .  S
Zr145       O170   2.447       .  S
Zr145       O164   2.466       .  S
Zr145       O172   2.379       .  S
Zr145       O160   2.414       .  S
Zr145       O151   2.480       .  S
Zr145       O152   2.411       .  S
Zr145       O153   2.367       .  S
Zr145       O154   2.457   1_455  S
Zr146       O165   2.433       .  S
Zr146       O158   2.433       .  S
Zr146       O159   2.544       .  S
Zr146       O152   2.398       .  S
Zr146       O153   2.406       .  S
Zr147       O149   2.434   1_455  S
Zr147       O171   2.433       .  S
Zr147       O173   2.390       .  S
Zr147       O151   2.400       .  S
Zr147       O154   2.391   1_455  S
Zr148       O174   2.437       .  S
Zr148       O175   2.434       .  S
Zr148       O150   2.435       .  S
Zr148       O151   2.386       .  S
Zr148       O152   2.382       .  S
O149        H186   0.990       .  S
O150        H181   0.990       .  S
O150        H195   0.990       .  S
O152        H178   0.962       .  S
O153       Zr163   2.411   1_455  S
O154       Zr163   2.355       .  S
O154        H179   0.967       .  S
C155       O1868   1.271   1_554  A
C155       C1687   1.477       .  S
C156       O1865   1.288   1_554  A
C156       C1606   1.555       .  S
C157       C1547   1.498       .  S
O158        H194   0.990       .  S
O159        C161   1.299       .  A
O160        C161   1.276       .  A
C161       C1704   1.535       .  S
O162       Zr163   2.444       .  S
O162        H191   0.990       .  S
Zr163       O166   2.437       .  S
Zr163       O167   2.438       .  S
Zr163       O168   2.472       .  S
O164        C169   1.292   1_455  A
O165        H182   0.990       .  S
O165        H197   0.990       .  S
O166        H183   0.990       .  S
O167        H187   0.990       .  S
O167        H196   0.990       .  S
O168        C169   1.291       .  A
C169       C1592   1.524       .  S
O170        H189   0.989       .  S
O170        H193   0.990       .  S
O171        H185   0.989       .  S
O171        H192   0.990       .  S
O172        C176   1.254       .  A
O173        C176   1.262       .  A
O174        H184   0.990       .  S
O175        H188   0.990       .  S
C176       C1561   1.402       .  S
H190       O1862   0.989   1_455  S
Zr199       O200   2.440   1_655  S
Zr199       O202   2.431       .  S
Zr199      O1929   2.476       .  S
Zr199      O1933   2.602   1_655  S
Zr199       O207   2.422       .  S
Zr199       O208   2.365       .  S
Zr199       O209   2.465   1_655  S
Zr199       O210   2.384   1_655  S
O200        H264   0.990       .  S
O200       H1984   0.990       .  S
O201      Zr1927   2.476   1_554  S
O201        C221   1.290       .  A
O202        C223   1.286       .  A
O203      Zr1941   2.373   1_554  S
O203        C222   1.268       .  A
O204       Zr212   2.463       .  S
O204        C223   1.292       .  A
O205      Zr1927   2.602   1_454  S
O205        C222   1.317       .  A
O206      Zr1942   2.378       .  S
O206        C221   1.263   1_556  A
O207       Zr212   2.424       .  S
O207       Zr214   2.363       .  S
O208       Zr213   2.362   1_655  S
O208       Zr214   2.400       .  S
O208        H243   0.966       .  S
O209       Zr212   2.454   1_455  S
O209       Zr229   2.412       .  S
O209        H246   0.965       .  S
O210       Zr213   2.374       .  S
O210       Zr229   2.432       .  S
Zr211       O236   2.438       .  S
Zr211       O230   2.438   1_655  S
Zr211       O238   2.338       .  S
Zr211       O226   2.415       .  S
Zr211       O217   2.384       .  S
Zr211       O218   2.370       .  S
Zr211       O219   2.368       .  S
Zr211       O220   2.358   1_655  S
Zr212       O231   2.433       .  S
Zr212       O224   2.434       .  S
Zr212       O225   2.581       .  S
Zr212       O218   2.391       .  S
Zr212       O219   2.389       .  S
Zr213       O215   2.424       .  S
Zr213       O237   2.437       .  S
Zr213       O239   2.345       .  S
Zr213      O1931   2.372       .  S
Zr213       O217   2.370   1_455  S
Zr213       O220   2.355       .  S
Zr214       O240   2.438       .  S
Zr214       O241   2.438       .  S
Zr214       O216   2.455       .  S
Zr214      O1934   2.378       .  S
Zr214       O217   2.373       .  S
Zr214       O218   2.362       .  S
O215        H252   0.987       .  S
O216        H247   0.989       .  S
O216        H261   0.989       .  S
O218        H244   0.961       .  S
O219       Zr229   2.377   1_655  S
O220       Zr229   2.354       .  S
O220        H245   0.963       .  S
C221       C1634   1.489       .  S
C222       C1676   1.550       .  S
C223       C1533   1.488   1_565  S
O224        H260   0.990       .  S
O225        C227   1.305       .  A
O226        C227   1.272       .  A
C227       C1620   1.549       .  S
O228       Zr229   2.439       .  S
O228        H257   0.990       .  S
Zr229       O232   2.434       .  S
Zr229       O233   2.439       .  S
Zr229       O234   2.495       .  S
O230        C235   1.287       .  A
O231        H248   0.990       .  S
O231        H263   0.990       .  S
O232        H249   0.990       .  S
O233        H253   0.991       .  S
O233        H262   0.990       .  S
O234        C235   1.296       .  A
C235       C1659   1.526       .  S
O236        H255   0.987       .  S
O236        H259   0.988       .  S
O237        H251   0.989       .  S
O237        H258   0.990   1_455  S
O238        C242   1.269   1_655  A
O239        C242   1.268       .  A
O240        H250   0.991       .  S
O241        H254   0.989       .  S
C242       C1564   1.398       .  S
H256       O1928   0.990       .  S
Zr265       O266   2.439       .  S
Zr265       O267   2.464       .  S
Zr265       O268   2.433       .  S
Zr265       O271   2.557       .  S
Zr265       O273   2.434       .  S
Zr265       O274   2.371       .  S
Zr265       O275   2.454       .  S
Zr265       O276   2.393       .  S
O266        H322   0.990       .  S
O266        H330   0.989       .  S
O267        C287   1.279       .  A
O268        C289   1.286       .  A
O269       Zr279   2.368       .  S
O269        C288   1.268       .  A
O270       Zr278   2.469       .  S
O270        C289   1.293       .  A
O271        C288   1.303       .  A
O272       Zr280   2.393       .  S
O272        C287   1.263       .  A
O273       Zr278   2.420       .  S
O273       Zr280   2.365       .  S
O274       Zr279   2.362       .  S
O274       Zr280   2.403       .  S
O274        H309   0.955       .  S
O275       Zr278   2.448       .  S
O275       Zr295   2.412       .  S
O275        H312   0.966       .  S
O276       Zr279   2.382       .  S
O276       Zr295   2.427       .  S
Zr277       O302   2.419   1_554  S
Zr277       O304   2.400       .  S
Zr277      O2024   2.473   1_554  S
Zr277      O2020   2.413   1_554  S
Zr277       O283   2.409       .  S
Zr277       O284   2.408       .  S
Zr277       O285   2.376       .  S
Zr277       O286   2.381       .  S
Zr278       O297   2.433       .  S
Zr278       O290   2.434       .  S
Zr278       O291   2.557   1_554  S
Zr278       O284   2.393       .  S
Zr278       O285   2.409       .  S
Zr279       O281   2.431       .  S
Zr279       O303   2.449       .  S
Zr279       O305   2.381       .  S
Zr279       O283   2.409       .  S
Zr279       O286   2.397       .  S
Zr280       O306   2.441       .  S
Zr280       O307   2.436       .  S
Zr280       O282   2.449       .  S
Zr280       O283   2.380       .  S
Zr280       O284   2.363       .  S
O281        H318   0.990       .  S
O282        H313   0.990       .  S
O282        H327   0.990       .  S
O284        H310   0.959       .  S
O285       Zr295   2.388       .  S
O286       Zr295   2.372       .  S
O286        H311   0.961       .  S
C287       C1505   1.476       .  S
C288       C1480   1.534       .  S
C289       C1578   1.495       .  S
O290        H326   0.990       .  S
O291       C2021   1.304       .  A
O292      Zr2005   2.413       .  S
O292        C293   1.282       .  A
C293       O2019   1.304       .  A
C293       C1494   1.538       .  S
O294       Zr295   2.440       .  S
O294        H323   0.990       .  S
Zr295       O298   2.436       .  S
Zr295       O299   2.440       .  S
Zr295       O300   2.472       .  S
O296      Zr2005   2.473       .  S
O296        C301   1.292       .  A
O297        H314   0.990       .  S
O297        H329   0.990       .  S
O298        H315   0.990   1_554  S
O299        H319   0.990       .  S
O299        H328   0.990       .  S
O300       C2029   1.290   1_554  A
C301       O2028   1.290       .  A
C301       C1463   1.539       .  S
O302        H321   0.989       .  S
O302        H325   0.984       .  S
O303        H317   0.991       .  S
O303        H324   0.991       .  S
O304        C308   1.270       .  A
O305        C308   1.259       .  A
O306        H316   0.990       .  S
O307        H320   0.991       .  S
C308       C1519   1.448       .  S
Zr331       O332   2.440       .  S
Zr331       O333   2.447       .  S
Zr331       O334   2.446       .  S
Zr331       O337   2.522       .  S
Zr331       O339   2.417       .  S
Zr331       O340   2.376       .  S
Zr331       O341   2.434       .  S
Zr331       O342   2.394       .  S
O332        H388   0.990       .  S
O332        H396   0.989       .  S
O333        C353   1.282       .  A
O334        C355   1.288       .  A
O335       Zr345   2.442       .  S
O335        C354   1.285       .  A
O336       Zr344   2.440       .  S
O336        C355   1.287       .  A
O337        C354   1.303       .  A
O338       Zr346   2.402       .  S
O338        C353   1.272       .  A
O339       Zr344   2.419       .  S
O339       Zr346   2.367       .  S
O340       Zr345   2.361       .  S
O340       Zr346   2.375       .  S
O340        H375   0.959       .  S
O341       Zr344   2.444       .  S
O341       Zr361   2.400       .  S
O341        H378   0.965       .  S
O342       Zr345   2.404       .  S
O342       Zr361   2.412       .  S
Zr343       O368   2.426   1_554  S
Zr343       O370   2.328       .  S
Zr343      O2090   2.484   1_554  S
Zr343      O2086   2.427   1_554  S
Zr343       O349   2.418       .  S
Zr343       O350   2.405       .  S
Zr343       O351   2.360       .  S
Zr343       O352   2.384       .  S
Zr344       O363   2.433       .  S
Zr344       O356   2.434       .  S
Zr344       O357   2.545   1_554  S
Zr344       O350   2.378       .  S
Zr344       O351   2.405       .  S
Zr345       O347   2.434       .  S
Zr345       O369   2.436       .  S
Zr345       O371   2.447       .  S
Zr345       O349   2.375       .  S
Zr345       O352   2.354       .  S
Zr346       O372   2.434       .  S
Zr346       O373   2.435       .  S
Zr346       O348   2.436       .  S
Zr346       O349   2.385       .  S
Zr346       O350   2.371       .  S
O347        H384   0.990       .  S
O348        H379   0.990       .  S
O348        H393   0.990       .  S
O350        H376   0.962       .  S
O351       Zr361   2.403       .  S
O352       Zr361   2.366       .  S
O352        H377   0.960       .  S
C353       C1449   1.473       .  S
C354       C1424   1.535       .  S
C355       C1648   1.485       .  S
O356        H392   0.990       .  S
O357       C2087   1.303       .  A
O358      Zr2071   2.427       .  S
O358        C359   1.282       .  A
C359       O2085   1.303       .  A
C359       C1435   1.528       .  S
O360       Zr361   2.439       .  S
O360        H389   0.990       .  S
Zr361       O364   2.436       .  S
Zr361       O365   2.437       .  S
Zr361       O366   2.448   1_554  S
O362      Zr2071   2.484       .  S
O362        C367   1.292       .  A
O363        H380   0.990       .  S
O363        H395   0.990       .  S
O364        H381   0.990   1_554  S
O365        H385   0.990       .  S
O365        H394   0.990       .  S
O366       C2095   1.285       .  A
C367       O2094   1.285       .  A
C367       C1407   1.499       .  S
O368        H387   0.989       .  S
O368        H391   0.990       .  S
O369        H383   0.989       .  S
O369        H390   0.990       .  S
O370        C374   1.259       .  A
O371        C374   1.291       .  A
O372        H382   0.990       .  S
O373        H386   0.990       .  S
C374       C1522   1.445   1_554  S
Zr397       O398   2.438       .  S
Zr397       O399   2.430       .  S
Zr397       O400   2.421       .  S
Zr397       O403   2.567       .  S
Zr397       O405   2.426       .  S
Zr397       O406   2.373       .  S
Zr397       O407   2.454       .  S
Zr397       O408   2.391       .  S
O398        H454   0.990       .  S
O398        H462   0.989       .  S
O399        C419   1.279       .  A
O400        C421   1.286       .  A
O401       Zr411   2.370       .  S
O401        C420   1.273       .  A
O402       Zr410   2.459       .  S
O402        C421   1.292       .  A
O403        C420   1.310       .  A
O404       Zr412   2.401       .  S
O404        C419   1.268       .  A
O405       Zr410   2.428       .  S
O405       Zr412   2.358       .  S
O406       Zr411   2.372       .  S
O406       Zr412   2.387       .  S
O406        H441   0.966       .  S
O407       Zr410   2.457       .  S
O407       Zr427   2.402       .  S
O407        H444   0.966       .  S
O408       Zr411   2.395       .  S
O408       Zr427   2.425       .  S
Zr409       O434   2.465       .  S
Zr409       O428   2.464       .  S
Zr409       O436   2.296       .  S
Zr409       O424   2.398       .  S
Zr409       O415   2.382       .  S
Zr409       O416   2.390       .  S
Zr409       O417   2.357       .  S
Zr409       O418   2.364       .  S
Zr410       O429   2.434       .  S
Zr410       O422   2.434       .  S
Zr410       O423   2.603       .  S
Zr410       O416   2.371       .  S
Zr410       O417   2.374       .  S
Zr411       O413   2.435       .  S
Zr411       O435   2.433       .  S
Zr411       O437   2.397       .  S
Zr411       O415   2.346       .  S
Zr411       O418   2.334       .  S
Zr412       O438   2.437       .  S
Zr412       O439   2.445       .  S
Zr412       O414   2.439       .  S
Zr412       O415   2.393       .  S
Zr412       O416   2.389       .  S
O413        H450   0.990       .  S
O414        H445   0.990       .  S
O414        H459   0.990       .  S
O416        H442   0.964       .  S
O417       Zr427   2.386       .  S
O418       Zr427   2.332       .  S
O418        H443   0.961       .  S
C419       C1452   1.485       .  S
C420       C1477   1.529       .  S
C421       C1379   1.481       .  S
O422        H458   0.990       .  S
O423        C425   1.316       .  A
O424        C425   1.275       .  A
C425       C1438   1.543       .  S
O426       Zr427   2.439       .  S
O426        H455   0.990       .  S
Zr427       O430   2.435       .  S
Zr427       O431   2.436       .  S
Zr427       O432   2.493       .  S
O428        C433   1.293       .  A
O429        H446   0.990       .  S
O429        H461   0.990       .  S
O430        H447   0.990       .  S
O431        H451   0.990       .  S
O431        H460   0.990       .  S
O432        C433   1.296       .  A
C433       C1466   1.538       .  S
O434        H453   0.989       .  S
O434        H457   0.988       .  S
O435        H449   0.989       .  S
O435        H456   0.989       .  S
O436        C440   1.263       .  A
O437        C440   1.282       .  A
O438        H448   0.990       .  S
O439        H452   0.990       .  S
C440       C1393   1.412       .  S
Zr463       O464   2.438       .  S
Zr463       O465   2.412       .  S
Zr463       O466   2.430       .  S
Zr463       O469   2.572       .  S
Zr463       O471   2.421       .  S
Zr463       O472   2.377       .  S
Zr463       O473   2.437       .  S
Zr463       O474   2.381       .  S
O464        H520   0.990       .  S
O464        H528   0.990       .  S
O465        C485   1.280       .  A
O466        C487   1.286       .  A
O467       Zr477   2.408       .  S
O467        C486   1.279       .  A
O468       Zr476   2.432       .  S
O468        C487   1.286       .  A
O469        C486   1.312       .  A
O470       Zr478   2.403       .  S
O470        C485   1.271       .  A
O471       Zr476   2.426       .  S
O471       Zr478   2.358       .  S
O472       Zr477   2.374       .  S
O472       Zr478   2.389       .  S
O472        H507   0.966       .  S
O473       Zr476   2.452       .  S
O473       Zr493   2.375       .  S
O473        H510   0.964       .  S
O474       Zr477   2.405       .  S
O474       Zr493   2.417       .  S
Zr475       O500   2.458       .  S
Zr475       O494   2.505       .  S
Zr475       O502   2.330       .  S
Zr475       O490   2.403       .  S
Zr475       O481   2.443       .  S
Zr475       O482   2.413       .  S
Zr475       O483   2.360       .  S
Zr475       O484   2.426       .  S
Zr476       O495   2.433       .  S
Zr476       O488   2.434       .  S
Zr476       O489   2.579       .  S
Zr476       O482   2.366       .  S
Zr476       O483   2.388       .  S
Zr477       O479   2.428       .  S
Zr477       O501   2.438       .  S
Zr477       O503   2.396       .  S
Zr477       O481   2.353       .  S
Zr477       O484   2.381       .  S
Zr478       O504   2.438       .  S
Zr478       O505   2.439       .  S
Zr478       O480   2.438       .  S
Zr478       O481   2.381       .  S
Zr478       O482   2.389       .  S
O479        H516   0.990       .  S
O480        H511   0.990       .  S
O480        H525   0.990       .  S
O482        H508   0.961       .  S
O483       Zr493   2.401       .  S
O484       Zr493   2.362       .  S
O484        H509   0.961       .  S
C485       C1508   1.487       .  S
C486       C1421   1.562       .  S
C487       C1368   1.466   1_565  S
O488        H524   0.990       .  S
O489        C491   1.301       .  A
O490        C491   1.268       .  A
C491       C1491   1.548       .  S
O492       Zr493   2.438       .  S
O492        H521   0.990       .  S
Zr493       O496   2.437       .  S
Zr493       O497   2.431       .  S
Zr493       O498   2.439       .  S
O494        C499   1.301       .  A
O495        H512   0.990       .  S
O495        H527   0.990       .  S
O496        H513   0.990       .  S
O497        H517   0.990       .  S
O497        H526   0.990       .  S
O498        C499   1.285       .  A
C499       C1410   1.514       .  S
O500        H519   0.986       .  S
O500        H523   0.986       .  S
O501        H515   0.990       .  S
O501        H522   0.989       .  S
O502        C506   1.255       .  A
O503        C506   1.265       .  A
O504        H514   0.990       .  S
O505        H518   0.990       .  S
C506       C1396   1.399       .  S
Zr529       O530   2.440       .  S
Zr529       O531   2.458       .  S
Zr529       O532   2.436       .  S
Zr529       O535   2.560       .  S
Zr529       O537   2.436       .  S
Zr529       O538   2.374       .  S
Zr529       O539   2.446       .  S
Zr529       O540   2.387       .  S
O530        H586   0.990       .  S
O530        H594   0.990       .  S
O531        C551   1.284       .  A
O532        C553   1.286       .  A
O533       Zr543   2.365       .  S
O533        C552   1.271       .  A
O534       Zr542   2.438       .  S
O534        C553   1.287       .  A
O535        C552   1.310       .  A
O536       Zr544   2.411       .  S
O536        C551   1.273       .  A
O537       Zr542   2.426       .  S
O537       Zr544   2.348       .  S
O538       Zr543   2.351       .  S
O538       Zr544   2.388       .  S
O538        H573   0.954       .  S
O539       Zr542   2.436       .  S
O539       Zr559   2.399       .  S
O539        H576   0.966       .  S
O540       Zr543   2.370       .  S
O540       Zr559   2.423       .  S
Zr541       O566   2.432       .  S
Zr541       O568   2.418       .  S
Zr541      O2288   2.493       .  S
Zr541      O2284   2.387       .  S
Zr541       O547   2.369       .  S
Zr541       O548   2.416       .  S
Zr541       O549   2.368       .  S
Zr541       O550   2.385       .  S
Zr542       O561   2.434       .  S
Zr542       O554   2.434       .  S
Zr542       O555   2.518       .  S
Zr542       O548   2.403       .  S
Zr542       O549   2.414       .  S
Zr543       O545   2.438       .  S
Zr543       O567   2.456       .  S
Zr543       O569   2.393       .  S
Zr543       O547   2.343       .  S
Zr543       O550   2.391       .  S
Zr544       O570   2.429       .  S
Zr544       O571   2.433       .  S
Zr544       O546   2.436       .  S
Zr544       O547   2.364       .  S
Zr544       O548   2.380       .  S
O545        H582   0.987       .  S
O546        H577   0.990       .  S
O546        H591   0.990       .  S
O548        H574   0.965       .  S
O549       Zr559   2.402       .  S
O550       Zr559   2.424       .  S
O550        H575   0.964       .  S
C551       C1309   1.480       .  S
C552       C1340   1.519       .  S
C553       C1284   1.478       .  S
O554        H590   0.990       .  S
O555       C2285   1.296       .  A
O556      Zr2269   2.388   1_554  S
O556        C557   1.280       .  A
C557       O2283   1.296       .  A
C557       C1295   1.519       .  S
O558       Zr559   2.439       .  S
O558        H587   0.990       .  S
Zr559       O562   2.435       .  S
Zr559       O563   2.442       .  S
Zr559       O564   2.422       .  S
O560      Zr2269   2.493   1_554  S
O560        C565   1.297       .  A
O561        H578   0.990       .  S
O561        H593   0.990       .  S
O562        H579   0.990       .  S
O563        H583   0.991       .  S
O563        H592   0.988       .  S
O564       C2293   1.279       .  A
C565       O2292   1.279       .  A
C565       C1323   1.501       .  S
O566        H585   0.991       .  S
O566        H589   0.987       .  S
O567        H581   0.990       .  S
O567        H588   0.988       .  S
O568        C572   1.266       .  A
O569        C572   1.256       .  A
O570        H580   0.990       .  S
O571        H584   0.990       .  S
C572       C1351   1.479       .  S
Zr595       O596   2.438       .  S
Zr595       O597   2.429       .  S
Zr595       O598   2.427       .  S
Zr595       O601   2.552       .  S
Zr595       O603   2.411       .  S
Zr595       O604   2.375       .  S
Zr595       O605   2.432       .  S
Zr595       O606   2.387       .  S
O596        H652   0.990       .  S
O596        H660   0.990       .  S
O597        C617   1.283       .  A
O598        C619   1.285       .  A
O599       Zr609   2.405       .  S
O599        C618   1.280       .  A
O600       Zr608   2.416       .  S
O600        C619   1.283       .  A
O601        C618   1.308       .  A
O602       Zr610   2.397       .  S
O602        C617   1.268       .  A
O603       Zr608   2.396       .  S
O603       Zr610   2.362       .  S
O604       Zr609   2.369       .  S
O604       Zr610   2.388       .  S
O604        H639   0.966       .  S
O605       Zr608   2.428       .  S
O605       Zr625   2.394       .  S
O605        H642   0.966       .  S
O606       Zr609   2.391       .  S
O606       Zr625   2.401       .  S
Zr607       O632   2.443       .  S
Zr607       O634   2.379       .  S
Zr607      O2354   2.455       .  S
Zr607      O2350   2.409       .  S
Zr607       O613   2.398       .  S
Zr607       O614   2.409       .  S
Zr607       O615   2.373       .  S
Zr607       O616   2.385       .  S
Zr608       O627   2.432       .  S
Zr608       O620   2.434       .  S
Zr608       O621   2.489       .  S
Zr608       O614   2.388       .  S
Zr608       O615   2.389       .  S
Zr609       O611   2.436       .  S
Zr609       O633   2.415       .  S
Zr609       O635   2.419       .  S
Zr609       O613   2.361       .  S
Zr609       O616   2.354       .  S
Zr610       O636   2.438       .  S
Zr610       O637   2.436       .  S
Zr610       O612   2.433       .  S
Zr610       O613   2.374       .  S
Zr610       O614   2.384       .  S
O611        H648   0.990       .  S
O612        H643   0.990       .  S
O612        H657   0.990       .  S
O614        H640   0.963       .  S
O615       Zr625   2.396       .  S
O616       Zr625   2.378       .  S
O616        H641   0.963       .  S
C617       C1242   1.490       .  S
C618       C1267   1.529       .  S
C619       C1211   1.470       .  S
O620        H656   0.990       .  S
O621       C2351   1.292       .  A
O622      Zr2335   2.409   1_554  S
O622        C623   1.276       .  A
C623       O2349   1.292       .  A
C623       C1225   1.488       .  S
O624       Zr625   2.440       .  S
O624        H653   0.990       .  S
Zr625       O628   2.437       .  S
Zr625       O629   2.437       .  S
Zr625       O630   2.422       .  S
O626      Zr2335   2.455   1_554  S
O626        C631   1.286       .  A
O627        H644   0.990       .  S
O627        H659   0.989       .  S
O628        H645   0.990       .  S
O629        H649   0.990       .  S
O629        H658   0.990       .  S
O630       C2359   1.281       .  A
C631       O2358   1.281       .  A
C631       C1256   1.478       .  S
O632        H651   0.991       .  S
O632        H655   0.990       .  S
O633        H647   0.983       .  S
O633        H654   0.987       .  S
O634        C638   1.267       .  A
O635        C638   1.287       .  A
O636        H646   0.990       .  S
O637        H650   0.990       .  S
C638       C1354   1.450       .  S
Zr661       O662   2.436       .  S
Zr661       O663   2.428       .  S
Zr661       O664   2.433       .  S
Zr661       O667   2.544       .  S
Zr661       O669   2.428       .  S
Zr661       O670   2.388       .  S
Zr661       O671   2.441       .  S
Zr661       O672   2.382       .  S
O662        H718   0.990       .  S
O662        H726   0.989       .  S
O663        C683   1.276       .  A
O664        C685   1.287       .  A
O665       Zr675   2.426       .  S
O665        C684   1.284       .  A
O666       Zr674   2.422       .  S
O666        C685   1.285       .  A
O667        C684   1.307       .  A
O668       Zr676   2.405       .  S
O668        C683   1.268       .  A
O669       Zr674   2.420       .  S
O669       Zr676   2.355       .  S
O670       Zr675   2.371       .  S
O670       Zr676   2.387       .  S
O670        H705   0.961       .  S
O671       Zr674   2.450       .  S
O671       Zr691   2.390       .  S
O671        H708   0.966       .  S
O672       Zr675   2.403       .  S
O672       Zr691   2.401       .  S
Zr673       O698   2.470       .  S
Zr673       O692   2.457       .  S
Zr673       O700   2.324       .  S
Zr673       O688   2.397       .  S
Zr673       O679   2.379       .  S
Zr673       O680   2.409       .  S
Zr673       O681   2.364       .  S
Zr673       O682   2.374       .  S
Zr674       O693   2.433       .  S
Zr674       O686   2.434       .  S
Zr674       O687   2.570       .  S
Zr674       O680   2.368       .  S
Zr674       O681   2.372       .  S
Zr675       O677   2.434       .  S
Zr675       O699   2.421       .  S
Zr675       O701   2.470       .  S
Zr675       O679   2.339       .  S
Zr675       O682   2.339       .  S
Zr676       O702   2.433       .  S
Zr676       O703   2.439       .  S
Zr676       O678   2.437       .  S
Zr676       O679   2.378       .  S
Zr676       O680   2.384       .  S
O677        H714   0.989       .  S
O678        H709   0.990       .  S
O678        H723   0.990       .  S
O680        H706   0.963       .  S
O681       Zr691   2.380       .  S
O682       Zr691   2.382       .  S
O682        H707   0.963       .  S
C683       C1312   1.482       .  S
C684       C1270   1.540       .  S
C685       C1365   1.472       .  S
O686        H722   0.990       .  S
O687        C689   1.300       .  A
O688        C689   1.264       .  A
C689       C1298   1.533       .  S
O690       Zr691   2.440       .  S
O690        H719   0.990       .  S
Zr691       O694   2.437       .  S
Zr691       O695   2.437       .  S
Zr691       O696   2.427       .  S
O692        C697   1.290       .  A
O693        H710   0.990       .  S
O693        H725   0.990       .  S
O694        H711   0.990       .  S
O695        H715   0.990       .  S
O695        H724   0.990       .  S
O696        C697   1.284       .  A
C697       C1253   1.481       .  S
O698        H717   0.986       .  S
O698        H721   0.986       .  S
O699        H713   0.989       .  S
O699        H720   0.989       .  S
O700        C704   1.267       .  A
O701        C704   1.298       .  A
O702        H712   0.990       .  S
O703        H716   0.990       .  S
C704       C1197   1.476       .  S
Zr727       O728   2.439       .  S
Zr727       O729   2.477       .  S
Zr727       O730   2.421       .  S
Zr727       O733   2.549       .  S
Zr727       O735   2.420       .  S
Zr727       O736   2.358       .  S
Zr727       O737   2.456       .  S
Zr727       O738   2.373       .  S
O728        H784   0.990       .  S
O728        H792   0.989       .  S
O729        C749   1.281       .  A
O730        C751   1.284       .  A
O731       Zr741   2.391       .  S
O731        C750   1.275       .  A
O732       Zr740   2.451       .  S
O732        C751   1.288       .  A
O733        C750   1.308       .  A
O734       Zr742   2.397       .  S
O734        C749   1.262       .  A
O735       Zr740   2.419       .  S
O735       Zr742   2.353       .  S
O736       Zr741   2.351       .  S
O736       Zr742   2.406       .  S
O736        H771   0.955       .  S
O737       Zr740   2.428       .  S
O737       Zr757   2.400       .  S
O737        H774   0.966       .  S
O738       Zr741   2.369       .  S
O738       Zr757   2.416       .  S
Zr739       O764   2.439       .  S
Zr739       O758   2.467       .  S
Zr739       O766   2.428       .  S
Zr739       O754   2.428       .  S
Zr739       O745   2.398       .  S
Zr739       O746   2.409       .  S
Zr739       O747   2.395       .  S
Zr739       O748   2.370       .  S
Zr740       O759   2.433       .  S
Zr740       O752   2.435       .  S
Zr740       O753   2.500       .  S
Zr740       O746   2.412       .  S
Zr740       O747   2.402       .  S
Zr741       O743   2.437       .  S
Zr741       O765   2.457       .  S
Zr741       O767   2.377       .  S
Zr741       O745   2.399       .  S
Zr741       O748   2.389       .  S
Zr742       O768   2.451       .  S
Zr742       O769   2.439       .  S
Zr742       O744   2.447       .  S
Zr742       O745   2.391       .  S
Zr742       O746   2.359       .  S
O743        H780   0.985       .  S
O744        H775   0.991       .  S
O744        H789   0.991       .  S
O746        H772   0.959       .  S
O747       Zr757   2.381       .  S
O748       Zr757   2.391       .  S
O748        H773   0.960       .  S
C749       C1239   1.478       .  S
C750       C1337   1.523       .  S
C751       C1382   1.483       .  S
O752        H788   0.990       .  S
O753        C755   1.296       .  A
O754        C755   1.282       .  A
C755       C1228   1.496       .  S
O756       Zr757   2.438       .  S
O756        H785   0.990       .  S
Zr757       O760   2.433       .  S
Zr757       O761   2.441       .  S
Zr757       O762   2.443       .  S
O758        C763   1.290       .  A
O759        H776   0.990       .  S
O759        H791   0.990       .  S
O760        H777   0.990       .  S
O761        H781   0.990       .  S
O761        H790   0.986       .  S
O762        C763   1.285       .  A
C763       C1326   1.501       .  S
O764        H783   0.989       .  S
O764        H787   0.990       .  S
O765        H779   0.989       .  S
O765        H786   0.990       .  S
O766        C770   1.278       .  A
O767        C770   1.258       .  A
O768        H778   0.988       .  S
O769        H782   0.990       .  S
C770       C1200   1.473       .  S
Zr793       O794   2.438       .  S
Zr793       O795   2.464       .  S
Zr793       O796   2.440       .  S
Zr793       O799   2.533       .  S
Zr793       O801   2.402       .  S
Zr793       O802   2.374       .  S
Zr793       O803   2.430       .  S
Zr793       O804   2.395       .  S
O794        H850   0.990       .  S
O794        H858   0.990       .  S
O795        C815   1.291       .  A
O796        C817   1.288       .  A
O797       Zr807   2.444       .  S
O797        C816   1.286       .  A
O798       Zr806   2.431       .  S
O798        C817   1.286       .  A
O799        C816   1.304       .  A
O800       Zr808   2.394       .  S
O800        C815   1.271       .  A
O801       Zr806   2.401       .  S
O801       Zr808   2.353       .  S
O802       Zr807   2.381       .  S
O802       Zr808   2.385       .  S
O802        H837   0.966       .  S
O803       Zr806   2.443       .  S
O803       Zr823   2.411       .  S
O803        H840   0.965       .  S
O804       Zr807   2.393       .  S
O804       Zr823   2.412       .  S
Zr805       O830   2.436       .  S
Zr805       O824   2.447       .  S
Zr805       O832   2.329       .  S
Zr805       O820   2.441       .  S
Zr805       O811   2.410       .  S
Zr805       O812   2.392       .  S
Zr805       O813   2.345       .  S
Zr805       O814   2.387       .  S
Zr806       O825   2.433       .  S
Zr806       O818   2.430       .  S
Zr806       O819   2.526       .  S
Zr806       O812   2.388       .  S
Zr806       O813   2.407       .  S
Zr807       O809   2.435       .  S
Zr807       O831   2.432       .  S
Zr807       O833   2.474       .  S
Zr807       O811   2.347       .  S
Zr807       O814   2.369       .  S
Zr808       O834   2.439       .  S
Zr808       O835   2.435       .  S
Zr808       O810   2.449       .  S
Zr808       O811   2.357       .  S
Zr808       O812   2.382       .  S
O809        H846   0.990       .  S
O810        H841   0.989       .  S
O810        H855   0.990       .  S
O812        H838   0.963       .  S
O813       Zr823   2.401       .  S
O814       Zr823   2.368       .  S
O814        H839   0.963       .  S
C815       C1141   1.488       .  S
C816       C1155   1.531       .  S
C817       C1214   1.506       .  S
O818        H854   0.990       .  S
O819        C821   1.293       .  A
O820        C821   1.281       .  A
C821       C1127   1.533       .  S
O822       Zr823   2.439       .  S
O822        H851   0.990       .  S
Zr823       O826   2.436       .  S
Zr823       O827   2.437       .  S
Zr823       O828   2.470       .  S
O824        C829   1.284       .  A
O825        H842   0.990       .  S
O825        H857   0.990       .  S
O826        H843   0.990       .  S
O827        H847   0.990       .  S
O827        H856   0.990       .  S
O828        C829   1.288       .  A
C829       C1169   1.501       .  S
O830        H849   0.982       .  S
O830        H853   0.988       .  S
O831        H845   0.989       .  S
O831        H852   0.990       .  S
O832        C836   1.257       .  A
O833        C836   1.297       .  A
O834        H844   0.990       .  S
O835        H848   0.990       .  S
C836       C1183   1.429       .  S
Zr859       O860   2.432       .  S
Zr859       O861   2.463       .  S
Zr859       O862   2.424       .  S
Zr859       O865   2.577       .  S
Zr859       O867   2.412       .  S
Zr859       O868   2.361       .  S
Zr859       O869   2.444       .  S
Zr859       O870   2.383       .  S
O860        H916   0.990       .  S
O860        H924   0.990       .  S
O861        C881   1.291       .  A
O862        C883   1.286       .  A
O863       Zr873   2.387       .  S
O863        C882   1.275       .  A
O864       Zr872   2.482       .  S
O864        C883   1.298       .  A
O865        C882   1.313       .  A
O866       Zr874   2.388       .  S
O866        C881   1.266       .  A
O867       Zr872   2.413       .  S
O867       Zr874   2.353       .  S
O868       Zr873   2.373       .  S
O868       Zr874   2.397       .  S
O868        H903   0.965       .  S
O869       Zr872   2.441       .  S
O869       Zr889   2.396       .  S
O869        H906   0.965       .  S
O870       Zr873   2.400       .  S
O870       Zr889   2.427       .  S
Zr871       O896   2.486       .  S
Zr871       O890   2.476       .  S
Zr871       O898   2.312       .  S
Zr871       O886   2.421       .  S
Zr871       O877   2.403       .  S
Zr871       O878   2.375       .  S
Zr871       O879   2.367       .  S
Zr871       O880   2.406       .  S
Zr872       O891   2.434       .  S
Zr872       O884   2.428       .  S
Zr872       O885   2.579       .  S
Zr872       O878   2.383       .  S
Zr872       O879   2.384       .  S
Zr873       O875   2.438       .  S
Zr873       O897   2.441       .  S
Zr873       O899   2.391       .  S
Zr873       O877   2.336       .  S
Zr873       O880   2.389       .  S
Zr874       O900   2.441       .  S
Zr874       O901   2.448       .  S
Zr874       O876   2.459       .  S
Zr874       O877   2.384       .  S
Zr874       O878   2.379       .  S
O875        H912   0.989       .  S
O876        H907   0.988       .  S
O876        H921   0.990       .  S
O878        H904   0.960       .  S
O879       Zr889   2.388       .  S
O880       Zr889   2.339       .  S
O880        H905   0.961       .  S
C881       C1085   1.482       .  S
C882       C1113   1.538       .  S
C883       C1281   1.515       .  S
O884        H920   0.990       .  S
O885        C887   1.312       .  A
O886        C887   1.281       .  A
C887       C1074   1.534       .  S
O888       Zr889   2.439       .  S
O888        H917   0.990       .  S
Zr889       O892   2.435       .  S
Zr889       O893   2.432       .  S
Zr889       O894   2.488       .  S
O890        C895   1.294       .  A
O891        H908   0.990       .  S
O891        H923   0.990       .  S
O892        H909   0.990       .  S
O893        H913   0.990       .  S
O893        H922   0.990       .  S
O894        C895   1.295       .  A
C895       C1099   1.519       .  S
O896        H915   0.992       .  S
O896        H919   0.989       .  S
O897        H911   0.989       .  S
O897        H918   0.988       .  S
O898        C902   1.260       .  A
O899        C902   1.262       .  A
O900        H910   0.989       .  S
O901        H914   0.989       .  S
C902       C1186   1.411       .  S
Zr925       O926   2.440   1_654  S
Zr925       O928   2.442       .  S
Zr925      O2655   2.450   1_554  S
Zr925      O2659   2.552   1_654  S
Zr925       O933   2.410       .  S
Zr925       O934   2.371       .  S
Zr925       O935   2.437   1_655  S
Zr925       O936   2.392   1_655  S
O926        H990   0.990       .  S
O926       H2710   0.990       .  S
O927      Zr2653   2.450       .  S
O927        C947   1.287       .  A
O928        C949   1.287       .  A
O929       Zr939   2.426       .  S
O929       C2676   1.283   1_554  A
O930       Zr938   2.450       .  S
O930        C949   1.289       .  A
O931      Zr2653   2.553   1_455  S
O931        C948   1.308       .  A
O932       Zr940   2.379       .  S
O932       C2675   1.266   1_554  A
O933       Zr938   2.408       .  S
O933       Zr940   2.359       .  S
O934       Zr939   2.381   1_655  S
O934       Zr940   2.391       .  S
O934        H969   0.966       .  S
O935       Zr938   2.440   1_455  S
O935       Zr955   2.396       .  S
O935        H972   0.965       .  S
O936       Zr939   2.392       .  S
O936       Zr955   2.411       .  S
Zr937       O962   2.421       .  S
Zr937       O956   2.484   1_655  S
Zr937       O964   2.401       .  S
Zr937       O952   2.436       .  S
Zr937       O943   2.385       .  S
Zr937       O944   2.407       .  S
Zr937       O945   2.368   1_655  S
Zr937       O946   2.387   1_655  S
Zr938       O957   2.433       .  S
Zr938       O950   2.434       .  S
Zr938       O951   2.529       .  S
Zr938       O944   2.387       .  S
Zr938       O945   2.407   1_655  S
Zr939       O941   2.436       .  S
Zr939       O963   2.414   1_455  S
Zr939       O965   2.448   1_455  S
Zr939       O943   2.339   1_455  S
Zr939       O946   2.375       .  S
Zr940       O966   2.438       .  S
Zr940       O967   2.436       .  S
Zr940       O942   2.449       .  S
Zr940       O943   2.359       .  S
Zr940       O944   2.365       .  S
O941        H978   0.990       .  S
O942        H973   0.988       .  S
O942        H987   0.990       .  S
O944        H970   0.960       .  S
O945       Zr955   2.402       .  S
O946       Zr955   2.386       .  S
O946        H971   0.964       .  S
C947       O2660   1.266       .  A
C947       C1088   1.475       .  S
C948       O2657   1.283       .  A
C948       C1158   1.545       .  S
C949       C1536   1.486       .  S
O950        H986   0.990       .  S
O951        C953   1.300       .  A
O952        C953   1.286       .  A
C953       C1071   1.520       .  S
O954       Zr955   2.440       .  S
O954        H983   0.990       .  S
Zr955       O958   2.437       .  S
Zr955       O959   2.437       .  S
Zr955       O960   2.434       .  S
O956        C961   1.291       .  A
O957        H974   0.990       .  S
O957        H989   0.990       .  S
O958        H975   0.990       .  S
O959        H979   0.990       .  S
O959        H988   0.990       .  S
O960        C961   1.282       .  A
C961       C1172   1.504       .  S
O962        H981   0.988       .  S
O962        H985   0.990       .  S
O963        H977   0.988       .  S
O963        H984   0.989   1_655  S
O964        C968   1.273       .  A
O965        C968   1.293       .  A
O966        H976   0.989       .  S
O967        H980   0.990       .  S
C968       C1057   1.465       .  S
H982       O2654   0.990       .  S
Zr991       O992   2.441   1_554  S
Zr991       O994   2.426       .  S
Zr991      O2721   2.453   1_554  S
Zr991      O2725   2.570   1_454  S
Zr991       O999   2.415       .  S
Zr991      O1000   2.361       .  S
Zr991      O1001   2.447       .  S
Zr991      O1002   2.370   1_455  S
O992       H1056   0.990   1_455  S
O992       H2776   0.990       .  S
O993      Zr2719   2.454       .  S
O993       C1013   1.287       .  A
O994       C1015   1.284       .  A
O995      Zr1005   2.350   1_656  S
O995       C2742   1.267       .  A
O996      Zr1004   2.477       .  S
O996       C1015   1.293       .  A
O997      Zr2719   2.570   1_655  S
O997       C1014   1.311       .  A
O998      Zr1006   2.393       .  S
O998       C2741   1.268   1_554  A
O999      Zr1004   2.411       .  S
O999      Zr1006   2.364       .  S
O1000     Zr1005   2.365       .  S
O1000     Zr1006   2.391       .  S
O1000      H1035   0.966   1_554  S
O1001     Zr1004   2.438       .  S
O1001     Zr1021   2.406   1_455  S
O1001      H1038   0.965       .  S
O1002     Zr1005   2.374   1_655  S
O1002     Zr1021   2.420       .  S
Zr1003     O1028   2.413       .  S
Zr1003     O1022   2.473       .  S
Zr1003     O1030   2.426       .  S
Zr1003     O1018   2.453       .  S
Zr1003     O1009   2.410       .  S
Zr1003     O1010   2.405       .  S
Zr1003     O1011   2.380       .  S
Zr1003     O1012   2.375       .  S
Zr1004     O1023   2.433       .  S
Zr1004     O1016   2.434       .  S
Zr1004     O1017   2.529       .  S
Zr1004     O1010   2.410       .  S
Zr1004     O1011   2.414       .  S
Zr1005     O1007   2.450   1_455  S
Zr1005     O1029   2.458   1_554  S
Zr1005     O1031   2.385       .  S
Zr1005     O1009   2.386       .  S
Zr1005     O1012   2.396       .  S
Zr1006     O1032   2.437       .  S
Zr1006     O1033   2.437       .  S
Zr1006     O1008   2.449       .  S
Zr1006     O1009   2.378       .  S
Zr1006     O1010   2.366       .  S
O1007      H1044   0.989       .  S
O1008      H1039   0.989       .  S
O1008      H1053   0.990       .  S
O1010      H1036   0.961       .  S
O1011     Zr1021   2.384   1_455  S
O1012     Zr1021   2.385   1_455  S
O1012      H1037   0.964   1_455  S
C1013      O2726   1.268       .  A
C1013      C1144   1.490       .  S
C1014      O2723   1.267       .  A
C1014      C1116   1.514       .  S
C1015      C1550   1.491       .  S
O1016      H1052   0.990       .  S
O1017      C1019   1.299       .  A
O1018      C1019   1.289       .  A
C1019      C1130   1.532       .  S
O1020     Zr1021   2.440       .  S
O1020      H1049   0.990       .  S
Zr1021     O1024   2.436       .  S
Zr1021     O1025   2.440       .  S
Zr1021     O1026   2.458       .  S
O1022      C1027   1.290   1_455  A
O1023      H1040   0.990       .  S
O1023      H1055   0.990       .  S
O1024      H1041   0.990       .  S
O1025      H1045   0.991       .  S
O1025      H1054   0.988       .  S
O1026      C1027   1.286       .  A
C1027      C1102   1.507       .  S
O1028      H1047   0.988       .  S
O1028      H1051   0.988       .  S
O1029      H1043   0.990       .  S
O1029      H1050   0.988   1_556  S
O1030      C1034   1.278       .  A
O1031      C1034   1.258       .  A
O1032      H1042   0.990       .  S
O1033      H1046   0.990       .  S
C1034      C1060   1.474       .  S
H1048      O2720   0.990       .  S
C1057      C1058   1.384       .  A
C1057      C1062   1.385       .  A
C1058      C1059   1.404       .  A
C1058      C1063   1.448       .  S
C1059      C1060   1.438   1_655  A
C1059      C1066   1.447       .  S
C1060      C1061   1.419       .  A
C1061      C1062   1.403   1_455  A
C1061      C1064   1.445       .  S
C1062      C1065   1.428       .  S
C1063      N1070   1.157       .  T
C1064      N1069   1.155       .  T
C1065      N1067   1.149       .  T
C1066      N1068   1.158       .  T
C1071      C1072   1.402       .  A
C1071      C1076   1.428       .  A
C1072      C1073   1.405       .  A
C1072      C1077   1.453       .  S
C1073      C1074   1.420       .  A
C1073      C1080   1.432       .  S
C1074      C1075   1.421       .  A
C1075      C1076   1.445       .  A
C1075      C1078   1.445       .  S
C1076      C1079   1.445       .  S
C1077      N1084   1.157       .  T
C1078      N1083   1.157       .  T
C1079      N1081   1.157       .  T
C1080      N1082   1.152       .  T
C1085      C1086   1.405       .  A
C1085      C1090   1.425       .  A
C1086      C1087   1.405       .  A
C1086      C1091   1.451       .  S
C1087      C1088   1.419       .  A
C1087      C1094   1.448       .  S
C1088      C1089   1.400       .  A
C1089      C1090   1.402       .  A
C1089      C1092   1.455       .  S
C1090      C1093   1.446       .  S
C1091      N1098   1.157       .  T
C1092      N1097   1.158       .  T
C1093      N1095   1.155       .  T
C1094      N2824   1.156       .  T
N1096      C2822   1.156   1_554  T
C1099      C1100   1.423       .  A
C1099      C1104   1.417       .  A
C1100      C1101   1.421       .  A
C1100      C1105   1.445       .  S
C1101      C1102   1.408       .  A
C1101      C1108   1.449       .  S
C1102      C1103   1.414       .  A
C1103      C1104   1.423       .  A
C1103      C1106   1.446       .  S
C1104      C1107   1.448       .  S
C1105      N1112   1.157       .  T
C1106      N1111   1.157       .  T
C1107      N1109   1.157       .  T
C1108      N1110   1.157       .  T
C1113      C1114   1.429       .  A
C1113      C1118   1.419       .  A
C1114      C1115   1.420       .  A
C1114      C1119   1.447       .  S
C1115      C1116   1.408       .  A
C1115      C1122   1.453   1_655  S
C1116      C1117   1.424       .  A
C1117      C1118   1.438       .  A
C1117      C1120   1.447       .  S
C1118      C1121   1.446       .  S
C1119      N1126   1.156       .  T
C1120      N1125   1.157       .  T
C1121      N1123   1.157       .  T
C1122      N1124   1.157       .  T
C1127      C1128   1.399       .  A
C1127      C1132   1.440       .  A
C1128      C1129   1.386       .  A
C1128      C1133   1.443       .  S
C1129      C1130   1.394       .  A
C1129      C1136   1.442       .  S
C1130      C1131   1.433       .  A
C1131      C1132   1.463       .  A
C1131      C1134   1.443       .  S
C1132      C1135   1.443       .  S
C1133      N1140   1.157       .  T
C1134      N1139   1.157       .  T
C1135      N1137   1.157       .  T
C1136      N1138   1.155       .  T
C1141      C1142   1.407       .  A
C1141      C1146   1.424       .  A
C1142      C1143   1.408       .  A
C1142      C1147   1.450       .  S
C1143      C1144   1.421       .  A
C1143      C1150   1.449       .  S
C1144      C1145   1.406       .  A
C1145      C1146   1.407       .  A
C1145      C1148   1.453       .  S
C1146      C1149   1.449       .  S
C1147      N1154   1.156       .  T
C1148      N1153   1.157       .  T
C1149      N1151   1.157       .  T
C1150      N2880   1.156       .  T
N1152      C2878   1.156   1_554  T
C1155      C1156   1.410       .  A
C1155      C1160   1.423       .  A
C1156      C1157   1.425       .  A
C1156      C1161   1.449       .  S
C1157      C1158   1.428       .  A
C1157      C1164   1.447       .  S
C1158      C1159   1.423       .  A
C1159      C1160   1.440       .  A
C1159      C1162   1.447       .  S
C1160      C1163   1.448       .  S
C1161      N1168   1.156       .  T
C1162      N1167   1.157       .  T
C1163      N1165   1.157       .  T
C1164      N1166   1.157       .  T
C1169      C1170   1.420       .  A
C1169      C1174   1.414       .  A
C1170      C1171   1.421       .  A
C1170      C1175   1.449       .  S
C1171      C1172   1.413       .  A
C1171      C1178   1.450       .  S
C1172      C1173   1.420       .  A
C1173      C1174   1.418       .  A
C1173      C1176   1.450       .  S
C1174      C1177   1.451       .  S
C1175      N1182   1.157       .  T
C1176      N1181   1.157       .  T
C1177      N1179   1.157       .  T
C1178      N1180   1.157       .  T
C1183      C1184   1.394       .  A
C1183      C1188   1.393       .  A
C1184      C1185   1.389   1_455  A
C1184      C1189   1.450       .  S
C1185      C1186   1.410       .  A
C1185      C1192   1.446       .  S
C1186      C1187   1.400   1_655  A
C1187      C1188   1.378       .  A
C1187      C1190   1.456       .  S
C1188      C1191   1.437       .  S
C1189      N1196   1.157       .  T
C1190      N1195   1.157       .  T
C1191      N1193   1.153       .  T
C1192      N1194   1.156       .  T
C1197      C1198   1.383       .  A
C1197      C1202   1.386       .  A
C1198      C1199   1.405       .  A
C1198      C1203   1.450       .  S
C1199      C1200   1.442       .  A
C1199      C1206   1.446       .  S
C1200      C1201   1.423       .  A
C1201      C1202   1.403       .  A
C1201      C1204   1.446       .  S
C1202      C1205   1.436       .  S
C1203      N1210   1.157       .  T
C1204      N1209   1.157       .  T
C1205      N1207   1.153       .  T
C1206      N1208   1.157       .  T
C1211      C1212   1.404       .  A
C1211      C1216   1.405       .  A
C1212      C1213   1.409       .  A
C1212      C1217   1.454       .  S
C1213      C1214   1.428       .  A
C1213      C1220   1.451       .  S
C1214      C1215   1.426       .  A
C1215      C1216   1.407       .  A
C1215      C1218   1.450       .  S
C1216      C1219   1.454       .  S
C1217      N1224   1.157       .  T
C1218      N1223   1.157       .  T
C1219      N1221   1.157       .  T
C1220      N1222   1.157       .  T
C1225      C1226   1.418       .  A
C1225      C1230   1.405       .  A
C1226      C1227   1.420       .  A
C1226      C1231   1.447       .  S
C1227      C1228   1.409       .  A
C1227      C1234   1.449       .  S
C1228      C1229   1.421       .  A
C1229      C1230   1.413       .  A
C1229      C1232   1.449       .  S
C1230      C1233   1.451       .  S
C1231      N2966   1.157   1_554  T
C1232      N1237   1.157       .  T
C1233      N1235   1.157       .  T
C1234      N1236   1.157       .  T
N1238      C2959   1.157       .  T
C1239      C1240   1.412       .  A
C1239      C1244   1.408       .  A
C1240      C1241   1.419       .  A
C1240      C1245   1.449       .  S
C1241      C1242   1.423       .  A
C1241      C1248   1.449       .  S
C1242      C1243   1.403       .  A
C1243      C1244   1.392       .  A
C1243      C1246   1.455       .  S
C1244      C1247   1.436       .  S
C1245      N1252   1.157       .  T
C1246      N1251   1.157       .  T
C1247      N1249   1.154       .  T
C1248      N1250   1.157       .  T
C1253      C1254   1.407       .  A
C1253      C1258   1.418       .  A
C1254      C1255   1.411       .  A
C1254      C1259   1.451       .  S
C1255      C1256   1.417       .  A
C1255      C1262   1.451       .  S
C1256      C1257   1.405       .  A
C1257      C1258   1.409       .  A
C1257      C1260   1.452       .  S
C1258      C1261   1.450       .  S
C1259      N1266   1.157       .  T
C1260      N1265   1.157       .  T
C1261      N1263   1.157       .  T
C1262      N2992   1.157   1_554  T
N1264      C2990   1.157       .  T
C1267      C1268   1.421       .  A
C1267      C1272   1.415       .  A
C1268      C1269   1.442       .  A
C1268      C1273   1.447       .  S
C1269      C1270   1.425       .  A
C1269      C1276   1.447       .  S
C1270      C1271   1.424       .  A
C1271      C1272   1.419       .  A
C1271      C1274   1.450       .  S
C1272      C1275   1.450       .  S
C1273      N1280   1.157       .  T
C1274      N1279   1.157       .  T
C1275      N1277   1.156       .  T
C1276      N1278   1.157       .  T
C1281      C1282   1.424       .  A
C1281      C1286   1.432       .  A
C1282      C1283   1.413       .  A
C1282      C1287   1.448       .  S
C1283      C1284   1.403       .  A
C1283      C1290   1.448       .  S
C1284      C1285   1.401       .  A
C1285      C1286   1.412       .  A
C1285      C1288   1.454       .  S
C1286      C1289   1.449       .  S
C1287      N1294   1.157       .  T
C1288      N1293   1.157       .  T
C1289      N1291   1.157       .  T
C1290      N1292   1.155       .  T
C1295      C1296   1.428       .  A
C1295      C1300   1.400       .  A
C1296      C1297   1.452       .  A
C1296      C1301   1.444       .  S
C1297      C1298   1.427       .  A
C1297      C1304   1.444       .  S
C1298      C1299   1.414       .  A
C1299      C1300   1.393       .  A
C1299      C1302   1.446       .  S
C1300      C1303   1.448       .  S
C1301      N1308   1.157       .  T
C1302      N1307   1.155       .  T
C1303      N1305   1.155       .  T
C1304      N1306   1.157       .  T
C1309      C1310   1.407       .  A
C1309      C1314   1.413       .  A
C1310      C1311   1.399       .  A
C1310      C1315   1.448       .  S
C1311      C1312   1.410       .  A
C1311      C1318   1.447       .  S
C1312      C1313   1.415       .  A
C1313      C1314   1.413       .  A
C1313      C1316   1.451       .  S
C1314      C1317   1.446       .  S
C1315      N1322   1.157       .  T
C1316      N1321   1.157       .  T
C1317      N1319   1.156       .  T
C1318      N1320   1.156       .  T
C1323      C1324   1.409       .  A
C1323      C1328   1.415       .  A
C1324      C1325   1.418       .  A
C1324      C1329   1.447       .  S
C1325      C1326   1.420       .  A
C1325      C1332   1.447       .  S
C1326      C1327   1.411       .  A
C1327      C1328   1.416       .  A
C1327      C1330   1.450       .  S
C1328      C1331   1.445       .  S
C1329      N1336   1.157       .  T
C1330      N1335   1.157       .  T
C1331      N1333   1.156   1_554  T
C1332      N1334   1.156       .  T
C1337      C1338   1.430       .  A
C1337      C1342   1.410       .  A
C1338      C1339   1.425       .  A
C1338      C1343   1.446       .  S
C1339      C1340   1.406       .  A
C1339      C1346   1.450       .  S
C1340      C1341   1.428       .  A
C1341      C1342   1.425       .  A
C1341      C1344   1.447       .  S
C1342      C1345   1.450       .  S
C1343      N1350   1.157       .  T
C1344      N1349   1.157       .  T
C1345      N1347   1.157       .  T
C1346      N1348   1.157       .  T
C1351      C1352   1.424       .  A
C1351      C1356   1.430       .  A
C1352      C1353   1.405       .  A
C1352      C3085   1.447       .  S
C1353      C1354   1.387       .  A
C1353      C3088   1.437       .  S
C1354      C1355   1.385       .  A
C1355      C1356   1.403       .  A
C1355      C1358   1.450       .  S
C1356      C1359   1.447       .  S
C1357      C3080   1.447   1_554  S
C1357      N1364   1.157       .  T
C1358      N1363   1.157       .  T
C1359      N1361   1.157       .  T
C1360      C3081   1.437       .  S
C1360      N1362   1.153       .  T
C1365      C1366   1.410       .  A
C1365      C1370   1.415       .  A
C1366      C1367   1.401       .  A
C1366      C1371   1.452       .  S
C1367      C1368   1.409       .  A
C1367      C1374   1.452       .  S
C1368      C1369   1.408       .  A
C1369      C1370   1.410       .  A
C1369      C1372   1.451       .  S
C1370      C1373   1.451       .  S
C1371      N1378   1.157       .  T
C1372      N1377   1.157   1_545  T
C1373      N1375   1.157       .  T
C1374      N1376   1.157   1_545  T
C1379      C1380   1.413       .  A
C1379      C1384   1.412       .  A
C1380      C1381   1.416       .  A
C1380      C1385   1.450       .  S
C1381      C1382   1.414       .  A
C1381      C1388   1.449       .  S
C1382      C1383   1.412       .  A
C1383      C1384   1.403       .  A
C1383      C1386   1.453       .  S
C1384      C1387   1.453       .  S
C1385      N1392   1.157       .  T
C1386      N1391   1.157       .  T
C1387      N1389   1.157       .  T
C1388      N1390   1.157       .  T
C1393      C1394   1.397       .  A
C1393      C1398   1.406       .  A
C1394      C1395   1.376       .  A
C1394      C1399   1.449       .  S
C1395      C1396   1.395       .  A
C1395      C1402   1.444       .  S
C1396      C1397   1.403       .  A
C1397      C1398   1.383       .  A
C1397      C1400   1.451       .  S
C1398      C1401   1.455       .  S
C1399      N1406   1.156       .  T
C1400      N1405   1.157       .  T
C1401      N1403   1.157       .  T
C1402      N1404   1.153       .  T
C1407      C1408   1.419       .  A
C1407      C1412   1.404       .  A
C1408      C1409   1.420       .  A
C1408      C1413   1.447       .  S
C1409      C1410   1.412       .  A
C1409      C1416   1.449       .  S
C1410      C1411   1.427       .  A
C1411      C1412   1.418       .  A
C1411      C1414   1.447       .  S
C1412      C1415   1.451       .  S
C1413      N3148   1.156       .  T
C1414      N1419   1.156       .  T
C1415      N1417   1.157       .  T
C1416      N1418   1.157       .  T
N1420      C3141   1.156   1_554  T
C1421      C1422   1.442       .  A
C1421      C1426   1.427       .  A
C1422      C1423   1.426       .  A
C1422      C1427   1.449       .  S
C1423      C1424   1.407       .  A
C1423      C1430   1.454       .  S
C1424      C1425   1.425       .  A
C1425      C1426   1.441       .  A
C1425      C1428   1.449       .  S
C1426      C1429   1.447       .  S
C1427      N1434   1.156       .  T
C1428      N1433   1.157       .  T
C1429      N1431   1.157       .  T
C1430      N1432   1.157       .  T
C1435      C1436   1.407       .  A
C1435      C1440   1.428       .  A
C1436      C1437   1.407       .  A
C1436      C1441   1.453       .  S
C1437      C1438   1.422       .  A
C1437      C1444   1.433       .  S
C1438      C1439   1.424       .  A
C1439      C1440   1.449       .  A
C1439      C1442   1.445       .  S
C1440      C1443   1.445       .  S
C1441      N1448   1.157       .  T
C1442      N1447   1.157       .  T
C1443      N1445   1.157       .  T
C1444      N1446   1.152       .  T
C1449      C1450   1.411       .  A
C1449      C1454   1.411       .  A
C1450      C1451   1.401       .  A
C1450      C1455   1.451       .  S
C1451      C1452   1.412       .  A
C1451      C1458   1.450       .  S
C1452      C1453   1.418       .  A
C1453      C1454   1.413       .  A
C1453      C1456   1.451       .  S
C1454      C1457   1.451       .  S
C1455      N1462   1.158       .  T
C1456      N1461   1.157       .  T
C1457      N1459   1.157       .  T
C1458      N1460   1.156       .  T
C1463      C1464   1.427       .  A
C1463      C1468   1.416       .  A
C1464      C1465   1.435       .  A
C1464      C1469   1.449       .  S
C1465      C1466   1.426       .  A
C1465      C1472   1.449       .  S
C1466      C1467   1.420       .  A
C1467      C1468   1.414       .  A
C1467      C1470   1.446       .  S
C1468      C1471   1.445       .  S
C1469      N1476   1.157       .  T
C1470      N1475   1.158       .  T
C1471      N1473   1.156       .  T
C1472      N1474   1.157       .  T
C1477      C1478   1.419       .  A
C1477      C1482   1.421       .  A
C1478      C1479   1.412       .  A
C1478      C1483   1.453       .  S
C1479      C1480   1.423       .  A
C1479      C1486   1.455       .  S
C1480      C1481   1.425       .  A
C1481      C1482   1.443       .  A
C1481      C1484   1.446       .  S
C1482      C1485   1.446       .  S
C1483      N1490   1.157       .  T
C1484      N1489   1.157       .  T
C1485      N1487   1.157       .  T
C1486      N1488   1.157       .  T
C1491      C1492   1.432       .  A
C1491      C1496   1.413       .  A
C1492      C1493   1.460       .  A
C1492      C1497   1.443       .  S
C1493      C1494   1.432       .  A
C1493      C1500   1.443       .  S
C1494      C1495   1.404       .  A
C1495      C1496   1.396       .  A
C1495      C1498   1.451       .  S
C1496      C1499   1.445       .  S
C1497      N1504   1.157       .  T
C1498      N1503   1.157       .  T
C1499      N1501   1.157       .  T
C1500      N1502   1.157       .  T
C1505      C1506   1.411       .  A
C1505      C1510   1.416       .  A
C1506      C1507   1.415       .  A
C1506      C1511   1.450       .  S
C1507      C1508   1.419       .  A
C1507      C1514   1.450       .  S
C1508      C1509   1.406       .  A
C1509      C1510   1.395       .  A
C1509      C1512   1.456       .  S
C1510      C1513   1.447       .  S
C1511      N1518   1.157       .  T
C1512      N1517   1.157       .  T
C1513      N1515   1.158       .  T
C1514      N1516   1.157       .  T
C1519      C1520   1.418       .  A
C1519      C1524   1.429       .  A
C1520      C1521   1.398   1_554  A
C1520      C3253   1.450       .  S
C1521      C1522   1.391       .  A
C1521      C3256   1.443       .  S
C1522      C1523   1.392   1_556  A
C1523      C1524   1.393       .  A
C1523      C1526   1.455       .  S
C1524      C1527   1.449       .  S
C1525      C3248   1.450       .  S
C1525      N1532   1.157       .  T
C1526      N1531   1.157       .  T
C1527      N1529   1.156       .  T
C1528      C3249   1.443       .  S
C1528      N1530   1.156       .  T
C1533      C1534   1.414       .  A
C1533      C1538   1.414       .  A
C1534      C3263   1.409       .  A
C1534      C1539   1.452   1_655  S
C1535      C1536   1.412       .  A
C1535      C3262   1.409   1_554  A
C1535      C1542   1.452   1_655  S
C1536      C1537   1.413       .  A
C1537      C3266   1.417   1_554  A
C1537      C1540   1.450       .  S
C1538      C3265   1.416       .  A
C1538      C1541   1.450       .  S
C1539      N1546   1.157       .  T
C1540      N1545   1.157       .  T
C1541      N1543   1.157       .  T
C1542      N1544   1.157       .  T
C1547      C1548   1.417       .  A
C1547      C1552   1.416       .  A
C1548      C3277   1.421       .  A
C1548      C1553   1.449       .  S
C1549      C1550   1.413       .  A
C1549      C3276   1.421       .  A
C1549      C1556   1.449       .  S
C1550      C1551   1.412       .  A
C1551      C3280   1.411       .  A
C1551      C1554   1.453       .  S
C1552      C3279   1.411       .  A
C1552      C1555   1.451       .  S
C1553      N1560   1.157       .  T
C1554      N1559   1.157   1_455  T
C1555      N1557   1.157   1_455  T
C1556      N1558   1.157       .  T
C1561      C1562   1.404       .  A
C1561      C1566   1.401   1_455  A
C1562      C1563   1.379       .  A
C1562      C1567   1.456       .  S
C1563      C1564   1.404       .  A
C1563      C1570   1.454       .  S
C1564      C1565   1.398   1_455  A
C1565      C1566   1.380       .  A
C1565      C1568   1.454       .  S
C1566      C1569   1.445       .  S
C1567      N1574   1.157       .  T
C1568      N1573   1.157       .  T
C1569      N1571   1.154       .  T
C1570      N1572   1.157       .  T
C1575      C1576   1.411       .  A
C1575      C1580   1.413       .  A
C1576      C1577   1.411       .  A
C1576      C1581   1.451       .  S
C1577      C1578   1.415       .  A
C1577      C1584   1.452       .  S
C1578      C1579   1.416       .  A
C1579      C1580   1.420       .  A
C1579      C1582   1.449       .  S
C1580      C1583   1.449       .  S
C1581      N1588   1.157       .  T
C1582      N1587   1.157       .  T
C1583      N1585   1.157       .  T
C1584      N1586   1.157       .  T
C1589      C1590   1.408       .  A
C1589      C1594   1.414       .  A
C1590      C1591   1.425       .  A
C1590      C1595   1.450       .  S
C1591      C1592   1.428       .  A
C1591      C1598   1.447       .  S
C1592      C1593   1.418       .  A
C1593      C1594   1.419       .  A
C1593      C1596   1.452       .  S
C1594      C1597   1.445       .  S
C1595      N1602   1.157       .  T
C1596      N1601   1.158   1_655  T
C1597      N1599   1.155       .  T
C1598      N1600   1.157       .  T
C1603      C1604   1.423       .  A
C1603      C1608   1.415       .  A
C1604      C1605   1.442       .  A
C1604      C1609   1.448       .  S
C1605      C1606   1.425       .  A
C1605      C1612   1.447       .  S
C1606      C1607   1.430       .  A
C1607      C1608   1.431       .  A
C1607      C1610   1.448       .  S
C1608      C1611   1.451       .  S
C1609      N1616   1.157       .  T
C1610      N1615   1.156   1_655  T
C1611      N1613   1.157       .  T
C1612      N1614   1.157       .  T
C1617      C1618   1.404       .  A
C1617      C1622   1.437       .  A
C1618      C1619   1.395       .  A
C1618      C1623   1.446       .  S
C1619      C1620   1.409       .  A
C1619      C1626   1.443       .  S
C1620      C1621   1.429       .  A
C1621      C1622   1.460       .  A
C1621      C1624   1.444       .  S
C1622      C1625   1.444       .  S
C1623      N1630   1.158       .  T
C1624      N1629   1.157       .  T
C1625      N1627   1.157       .  T
C1626      N1628   1.155       .  T
C1631      C1632   1.402       .  A
C1631      C1636   1.421       .  A
C1632      C1633   1.406       .  A
C1632      C1637   1.455       .  S
C1633      C1634   1.425       .  A
C1633      C1640   1.446       .  S
C1634      C1635   1.405       .  A
C1635      C1636   1.407       .  A
C1635      C1638   1.452       .  S
C1636      C1639   1.447       .  S
C1637      N1644   1.158       .  T
C1638      N1643   1.157       .  T
C1639      N1641   1.156       .  T
C1640      N3370   1.156   1_554  T
N1642      C3368   1.156       .  T
C1645      C1646   1.413       .  A
C1645      C1650   1.413       .  A
C1646      C1647   1.415       .  A
C1646      C1651   1.450       .  S
C1647      C1648   1.414       .  A
C1647      C1654   1.450       .  S
C1648      C1649   1.413       .  A
C1649      C1650   1.408       .  A
C1649      C1652   1.452       .  S
C1650      C1653   1.452       .  S
C1651      N1658   1.157       .  T
C1652      N1657   1.157       .  T
C1653      N1655   1.157       .  T
C1654      N1656   1.157       .  T
C1659      C1660   1.419       .  A
C1659      C1664   1.417       .  A
C1660      C1661   1.412       .  A
C1660      C1665   1.443       .  S
C1661      C1662   1.414       .  A
C1661      C1668   1.444       .  S
C1662      C1663   1.432       .  A
C1663      C1664   1.431       .  A
C1663      C1666   1.450       .  S
C1664      C1667   1.450       .  S
C1665      N1672   1.154   1_455  T
C1666      N1671   1.157       .  T
C1667      N1669   1.157       .  T
C1668      N1670   1.154       .  T
C1673      C1674   1.430       .  A
C1673      C1678   1.403       .  A
C1674      C1675   1.438       .  A
C1674      C1679   1.447       .  S
C1675      C1676   1.416       .  A
C1675      C1682   1.448       .  S
C1676      C1677   1.443       .  A
C1677      C1678   1.428       .  A
C1677      C1680   1.447       .  S
C1678      C1681   1.452       .  S
C1679      N1686   1.157       .  T
C1680      N3413   1.157   1_554  T
C1681      N1683   1.158       .  T
C1682      N1684   1.157       .  T
N1685      C3408   1.157       .  T
C1687      C1688   1.412       .  A
C1687      C1692   1.406       .  A
C1688      C1689   1.415       .  A
C1688      C1693   1.450       .  S
C1689      C1690   1.417       .  A
C1689      C1696   1.450       .  S
C1690      C1691   1.413       .  A
C1691      C1692   1.400       .  A
C1691      C1694   1.448       .  S
C1692      C1695   1.448       .  S
C1693      N1700   1.157       .  T
C1694      N1699   1.157       .  T
C1695      N1697   1.155       .  T
C1696      N1698   1.157       .  T
C1701      C1702   1.420       .  A
C1701      C1706   1.416       .  A
C1702      C1703   1.426       .  A
C1702      C1707   1.448       .  S
C1703      C1704   1.418       .  A
C1703      C1710   1.450       .  S
C1704      C1705   1.424       .  A
C1705      C1706   1.435       .  A
C1705      C1708   1.444       .  S
C1706      C1709   1.448       .  S
C1707      N1714   1.157       .  T
C1708      N1713   1.156       .  T
C1709      N1711   1.157       .  T
C1710      N1712   1.157       .  T
C1715      C1716   1.396   1_655  A
C1715      C1720   1.386   1_655  A
C1716      C1717   1.400       .  A
C1716      C1721   1.447   1_455  S
C1717      C1718   1.417       .  A
C1717      C1724   1.446       .  S
C1718      C1719   1.432       .  A
C1719      C1720   1.397       .  A
C1719      C1722   1.449       .  S
C1720      C1723   1.451       .  S
C1721      N1728   1.156       .  T
C1722      N1727   1.158       .  T
C1723      N1725   1.157       .  T
C1724      N1726   1.155       .  T
Zr1729     O1730   2.439       .  S
Zr1729     O1731   2.450       .  S
Zr1729     O1732   2.435       .  S
Zr1729     O1735   2.575       .  S
Zr1729     O1737   2.430       .  S
Zr1729     O1738   2.366       .  S
Zr1729     O1739   2.452       .  S
Zr1729     O1740   2.367       .  S
O1730      H1786   0.990       .  S
O1730      H1794   0.989       .  S
O1731      C1751   1.281       .  A
O1732      C1753   1.287       .  A
O1733     Zr1743   2.386       .  S
O1733      C1752   1.274       .  A
O1734     Zr1742   2.450       .  S
O1734      C1753   1.289       .  A
O1735      C1752   1.313       .  A
O1736     Zr1744   2.404       .  S
O1736      C1751   1.269       .  A
O1737     Zr1742   2.421       .  S
O1737     Zr1744   2.365       .  S
O1738     Zr1743   2.352       .  S
O1738     Zr1744   2.384       .  S
O1738      H1773   0.958       .  S
O1739     Zr1742   2.439       .  S
O1739     Zr1759   2.401       .  S
O1739      H1776   0.966       .  S
O1740     Zr1743   2.376       .  S
O1740     Zr1759   2.414       .  S
Zr1741     O1766   2.432       .  S
Zr1741     O1760   2.491       .  S
Zr1741     O1768   2.415       .  S
Zr1741     O1756   2.426       .  S
Zr1741     O1747   2.410       .  S
Zr1741     O1748   2.410       .  S
Zr1741     O1749   2.377       .  S
Zr1741     O1750   2.386       .  S
Zr1742     O1761   2.433       .  S
Zr1742     O1754   2.434       .  S
Zr1742     O1755   2.552       .  S
Zr1742     O1748   2.376       .  S
Zr1742     O1749   2.392       .  S
Zr1743     O1745   2.441       .  S
Zr1743     O1767   2.448       .  S
Zr1743     O1769   2.391       .  S
Zr1743     O1747   2.398       .  S
Zr1743     O1750   2.393       .  S
Zr1744     O1770   2.435       .  S
Zr1744     O1771   2.441       .  S
Zr1744     O1746   2.438       .  S
Zr1744     O1747   2.377       .  S
Zr1744     O1748   2.374       .  S
O1745      H1782   0.987       .  S
O1746      H1777   0.990       .  S
O1746      H1791   0.990       .  S
O1748      H1774   0.961       .  S
O1749     Zr1759   2.391       .  S
O1750     Zr1759   2.393       .  S
O1750      H1775   0.963       .  S
C1751      C3418   1.483       .  S
C1752      C3401   1.533       .  S
C1753      C3373   1.485       .  S
O1754      H1790   0.990       .  S
O1755      C1757   1.307       .  A
O1756      C1757   1.280       .  A
C1757      C3429   1.525       .  S
O1758     Zr1759   2.443       .  S
O1758      H1787   0.990       .  S
Zr1759     O1762   2.436       .  S
Zr1759     O1763   2.444       .  S
Zr1759     O1764   2.441       .  S
O1760      C1765   1.298       .  A
O1761      H1778   0.990       .  S
O1761      H1793   0.990       .  S
O1762      H1779   0.990       .  S
O1763      H1783   0.989       .  S
O1763      H1792   0.990       .  S
O1764      C1765   1.283       .  A
C1765      C3390   1.534       .  S
O1766      H1785   0.983       .  S
O1766      H1789   0.990       .  S
O1767      H1781   0.990       .  S
O1767      H1788   0.988       .  S
O1768      C1772   1.274       .  A
O1769      C1772   1.263       .  A
O1770      H1780   0.990       .  S
O1771      H1784   0.990       .  S
C1772      C3446   1.460       .  S
Zr1795     O1796   2.442       .  S
Zr1795     O1797   2.460       .  S
Zr1795     O1798   2.447       .  S
Zr1795     O1801   2.537       .  S
Zr1795     O1803   2.408       .  S
Zr1795     O1804   2.383       .  S
Zr1795     O1805   2.434       .  S
Zr1795     O1806   2.395       .  S
O1796      H1852   0.990       .  S
O1796      H1860   0.991       .  S
O1797      C1817   1.289       .  A
O1798      C1819   1.287       .  A
O1799     Zr1809   2.456       .  S
O1799      C1818   1.287       .  A
O1800     Zr1808   2.461       .  S
O1800      C1819   1.290       .  A
O1801      C1818   1.304       .  A
O1802     Zr1810   2.383       .  S
O1802      C1817   1.268       .  A
O1803     Zr1808   2.410       .  S
O1803     Zr1810   2.366       .  S
O1804     Zr1809   2.382       .  S
O1804     Zr1810   2.386       .  S
O1804      H1839   0.966       .  S
O1805     Zr1808   2.448       .  S
O1805     Zr1825   2.406       .  S
O1805      H1842   0.965       .  S
O1806     Zr1809   2.402       .  S
O1806     Zr1825   2.409       .  S
Zr1807     O1832   2.422       .  S
Zr1807     O1826   2.486       .  S
Zr1807     O1834   2.337       .  S
Zr1807     O1822   2.456       .  S
Zr1807     O1813   2.422       .  S
Zr1807     O1814   2.397       .  S
Zr1807     O1815   2.357       .  S
Zr1807     O1816   2.387       .  S
Zr1808     O1827   2.433       .  S
Zr1808     O1820   2.434       .  S
Zr1808     O1821   2.541       .  S
Zr1808     O1814   2.397       .  S
Zr1808     O1815   2.415       .  S
Zr1809     O1811   2.428       .  S
Zr1809     O1833   2.432       .  S
Zr1809     O1835   2.500       .  S
Zr1809     O1813   2.352       .  S
Zr1809     O1816   2.369       .  S
Zr1810     O1836   2.443       .  S
Zr1810     O1837   2.439       .  S
Zr1810     O1812   2.448       .  S
Zr1810     O1813   2.372       .  S
Zr1810     O1814   2.365       .  S
O1811      H1848   0.990       .  S
O1812      H1843   0.988       .  S
O1812      H1857   0.990       .  S
O1814      H1840   0.962       .  S
O1815     Zr1825   2.400       .  S
O1816     Zr1825   2.374       .  S
O1816      H1841   0.961       .  S
C1817      C3359   1.482       .  S
C1818      C3331   1.540       .  S
C1819      C3303   1.490       .  S
O1820      H1856   0.990       .  S
O1821      C1823   1.298       .  A
O1822      C1823   1.284       .  A
C1823      C3345   1.547       .  S
O1824     Zr1825   2.438       .  S
O1824      H1853   0.990       .  S
Zr1825     O1828   2.437       .  S
Zr1825     O1829   2.437       .  S
Zr1825     O1830   2.454       .  S
O1826      C1831   1.290       .  A
O1827      H1844   0.990       .  S
O1827      H1859   0.990       .  S
O1828      H1845   0.990       .  S
O1829      H1849   0.990       .  S
O1829      H1858   0.990       .  S
O1830      C1831   1.285       .  A
C1831      C3317   1.506       .  S
O1832      H1851   0.982       .  S
O1832      H1855   0.989       .  S
O1833      H1847   0.987       .  S
O1833      H1854   0.990       .  S
O1834      C1838   1.260       .  A
O1835      C1838   1.305       .  A
O1836      H1846   0.989       .  S
O1837      H1850   0.990       .  S
C1838      C3443   1.454       .  S
Zr1861     O1862   2.438   1_456  S
Zr1861     O1864   2.453       .  S
Zr1861     O1869   2.418       .  S
Zr1861     O1870   2.382       .  S
Zr1861     O1871   2.441       .  S
Zr1861     O1872   2.402   1_455  S
O1862      H1926   0.989       .  S
O1863      C1883   1.281       .  A
O1864      C1885   1.291       .  A
O1865     Zr1875   2.455   1_655  S
O1866     Zr1874   2.462       .  S
O1866      C1885   1.292       .  A
O1867      C1884   1.306       .  A
O1868     Zr1876   2.411       .  S
O1869     Zr1874   2.415       .  S
O1869     Zr1876   2.363       .  S
O1870     Zr1875   2.372       .  S
O1870     Zr1876   2.378       .  S
O1870      H1905   0.963       .  S
O1871     Zr1874   2.440       .  S
O1871     Zr1891   2.399   1_455  S
O1871      H1908   0.965       .  S
O1872     Zr1875   2.399   1_655  S
O1872     Zr1891   2.433       .  S
Zr1873     O1898   2.447       .  S
Zr1873     O1892   2.466       .  S
Zr1873     O1900   2.379       .  S
Zr1873     O1888   2.414       .  S
Zr1873     O1879   2.480       .  S
Zr1873     O1880   2.411       .  S
Zr1873     O1881   2.367       .  S
Zr1873     O1882   2.457   1_455  S
Zr1874     O1893   2.433       .  S
Zr1874     O1886   2.433       .  S
Zr1874     O1887   2.544       .  S
Zr1874     O1880   2.398       .  S
Zr1874     O1881   2.406       .  S
Zr1875     O1877   2.434   1_455  S
Zr1875     O1899   2.433       .  S
Zr1875     O1901   2.390       .  S
Zr1875     O1879   2.400       .  S
Zr1875     O1882   2.391   1_455  S
Zr1876     O1902   2.437       .  S
Zr1876     O1903   2.434       .  S
Zr1876     O1878   2.435       .  S
Zr1876     O1879   2.386       .  S
Zr1876     O1880   2.382       .  S
O1877      H1914   0.990       .  S
O1878      H1909   0.990       .  S
O1878      H1923   0.990       .  S
O1880      H1906   0.962       .  S
O1881     Zr1891   2.411   1_455  S
O1882     Zr1891   2.356       .  S
O1882      H1907   0.967       .  S
C1883      C3415   1.477       .  S
C1884      C3334   1.555       .  S
C1885      C3275   1.499       .  S
O1886      H1922   0.990       .  S
O1887      C1889   1.299       .  A
O1888      C1889   1.276       .  A
C1889      C3432   1.535       .  S
O1890     Zr1891   2.444       .  S
O1890      H1919   0.990       .  S
Zr1891     O1894   2.437       .  S
Zr1891     O1895   2.438       .  S
Zr1891     O1896   2.472       .  S
O1892      C1897   1.292   1_455  A
O1893      H1910   0.990       .  S
O1893      H1925   0.990       .  S
O1894      H1911   0.990       .  S
O1895      H1915   0.990       .  S
O1895      H1924   0.990       .  S
O1896      C1897   1.291       .  A
C1897      C3320   1.524       .  S
O1898      H1917   0.989       .  S
O1898      H1921   0.990       .  S
O1899      H1913   0.989       .  S
O1899      H1920   0.990       .  S
O1900      C1904   1.254       .  A
O1901      C1904   1.262       .  A
O1902      H1912   0.990       .  S
O1903      H1916   0.990       .  S
C1904      C3289   1.402       .  S
Zr1927     O1928   2.440   1_656  S
Zr1927     O1930   2.431       .  S
Zr1927     O1935   2.422       .  S
Zr1927     O1936   2.365       .  S
Zr1927     O1937   2.465   1_655  S
Zr1927     O1938   2.384   1_655  S
O1928      H1992   0.990       .  S
O1929      C1949   1.290       .  A
O1930      C1951   1.286       .  A
O1931      C1950   1.268       .  A
O1932     Zr1940   2.464       .  S
O1932      C1951   1.292       .  A
O1933      C1950   1.317       .  A
O1934      C1949   1.263       .  A
O1935     Zr1940   2.424       .  S
O1935     Zr1942   2.363       .  S
O1936     Zr1941   2.362   1_655  S
O1936     Zr1942   2.400       .  S
O1936      H1971   0.966   1_556  S
O1937     Zr1940   2.454   1_455  S
O1937     Zr1957   2.413       .  S
O1937      H1974   0.965       .  S
O1938     Zr1941   2.374       .  S
O1938     Zr1957   2.432       .  S
Zr1939     O1964   2.438       .  S
Zr1939     O1958   2.437   1_655  S
Zr1939     O1966   2.338       .  S
Zr1939     O1954   2.415       .  S
Zr1939     O1945   2.384       .  S
Zr1939     O1946   2.370       .  S
Zr1939     O1947   2.368       .  S
Zr1939     O1948   2.358   1_655  S
Zr1940     O1959   2.433       .  S
Zr1940     O1952   2.434       .  S
Zr1940     O1953   2.581       .  S
Zr1940     O1946   2.391       .  S
Zr1940     O1947   2.389       .  S
Zr1941     O1943   2.424       .  S
Zr1941     O1965   2.437       .  S
Zr1941     O1967   2.345       .  S
Zr1941     O1945   2.370   1_455  S
Zr1941     O1948   2.355       .  S
Zr1942     O1968   2.438   1_556  S
Zr1942     O1969   2.438       .  S
Zr1942     O1944   2.455       .  S
Zr1942     O1945   2.373       .  S
Zr1942     O1946   2.362       .  S
O1943      H1980   0.987       .  S
O1944      H1975   0.989       .  S
O1944      H1989   0.989       .  S
O1946      H1972   0.961       .  S
O1947     Zr1957   2.377   1_655  S
O1948     Zr1957   2.354       .  S
O1948      H1973   0.963       .  S
C1949      C3362   1.489       .  S
C1950      C3404   1.550       .  S
C1951      C3261   1.488   1_565  S
O1952      H1988   0.990       .  S
O1953      C1955   1.305       .  A
O1954      C1955   1.272       .  A
C1955      C3348   1.549       .  S
O1956     Zr1957   2.439       .  S
O1956      H1985   0.990       .  S
Zr1957     O1960   2.434       .  S
Zr1957     O1961   2.439       .  S
Zr1957     O1962   2.496       .  S
O1958      C1963   1.287       .  A
O1959      H1976   0.990       .  S
O1959      H1991   0.990       .  S
O1960      H1977   0.990       .  S
O1961      H1981   0.991       .  S
O1961      H1990   0.990       .  S
O1962      C1963   1.296       .  A
C1963      C3387   1.526       .  S
O1964      H1983   0.987       .  S
O1964      H1987   0.988       .  S
O1965      H1979   0.989       .  S
O1965      H1986   0.990   1_456  S
O1966      C1970   1.269   1_655  A
O1967      C1970   1.268       .  A
O1968      H1978   0.991       .  S
O1969      H1982   0.989       .  S
C1970      C3292   1.398       .  S
Zr1993     O1994   2.439       .  S
Zr1993     O1995   2.464       .  S
Zr1993     O1996   2.433       .  S
Zr1993     O1999   2.557       .  S
Zr1993     O2001   2.434       .  S
Zr1993     O2002   2.371       .  S
Zr1993     O2003   2.454       .  S
Zr1993     O2004   2.393       .  S
O1994      H2050   0.990       .  S
O1994      H2058   0.989       .  S
O1995      C2015   1.279       .  A
O1996      C2017   1.286       .  A
O1997     Zr2007   2.368       .  S
O1997      C2016   1.268       .  A
O1998     Zr2006   2.469       .  S
O1998      C2017   1.293       .  A
O1999      C2016   1.303       .  A
O2000     Zr2008   2.393       .  S
O2000      C2015   1.263       .  A
O2001     Zr2006   2.420       .  S
O2001     Zr2008   2.365       .  S
O2002     Zr2007   2.362       .  S
O2002     Zr2008   2.403       .  S
O2002      H2037   0.955       .  S
O2003     Zr2006   2.448       .  S
O2003     Zr2023   2.412       .  S
O2003      H2040   0.966       .  S
O2004     Zr2007   2.382       .  S
O2004     Zr2023   2.427       .  S
Zr2005     O2030   2.419       .  S
Zr2005     O2032   2.400       .  S
Zr2005     O2011   2.409       .  S
Zr2005     O2012   2.408       .  S
Zr2005     O2013   2.376       .  S
Zr2005     O2014   2.381       .  S
Zr2006     O2025   2.433       .  S
Zr2006     O2018   2.434       .  S
Zr2006     O2019   2.557       .  S
Zr2006     O2012   2.393       .  S
Zr2006     O2013   2.409       .  S
Zr2007     O2009   2.431       .  S
Zr2007     O2031   2.449       .  S
Zr2007     O2033   2.381       .  S
Zr2007     O2011   2.409       .  S
Zr2007     O2014   2.397       .  S
Zr2008     O2034   2.441       .  S
Zr2008     O2035   2.436       .  S
Zr2008     O2010   2.449       .  S
Zr2008     O2011   2.380       .  S
Zr2008     O2012   2.363       .  S
O2009      H2046   0.990       .  S
O2010      H2041   0.990       .  S
O2010      H2055   0.990       .  S
O2012      H2038   0.959       .  S
O2013     Zr2023   2.388       .  S
O2014     Zr2023   2.372       .  S
O2014      H2039   0.961       .  S
C2015      C3233   1.476       .  S
C2016      C3208   1.535       .  S
C2017      C3306   1.495       .  S
O2018      H2054   0.990       .  S
O2020      C2021   1.282       .  A
C2021      C3222   1.538       .  S
O2022     Zr2023   2.440       .  S
O2022      H2051   0.990       .  S
Zr2023     O2026   2.436       .  S
Zr2023     O2027   2.440       .  S
Zr2023     O2028   2.472       .  S
O2024      C2029   1.292       .  A
O2025      H2042   0.990       .  S
O2025      H2057   0.990       .  S
O2026      H2043   0.990       .  S
O2027      H2047   0.990       .  S
O2027      H2056   0.990       .  S
C2029      C3191   1.539       .  S
O2030      H2049   0.989       .  S
O2030      H2053   0.984       .  S
O2031      H2045   0.991       .  S
O2031      H2052   0.991       .  S
O2032      C2036   1.270       .  A
O2033      C2036   1.259       .  A
O2034      H2044   0.990       .  S
O2035      H2048   0.991       .  S
C2036      C3247   1.448       .  S
Zr2059     O2060   2.440       .  S
Zr2059     O2061   2.447       .  S
Zr2059     O2062   2.446       .  S
Zr2059     O2065   2.522       .  S
Zr2059     O2067   2.417       .  S
Zr2059     O2068   2.376       .  S
Zr2059     O2069   2.434       .  S
Zr2059     O2070   2.394       .  S
O2060      H2116   0.990       .  S
O2060      H2124   0.989       .  S
O2061      C2081   1.282       .  A
O2062      C2083   1.288       .  A
O2063     Zr2073   2.442       .  S
O2063      C2082   1.285       .  A
O2064     Zr2072   2.440       .  S
O2064      C2083   1.287       .  A
O2065      C2082   1.303       .  A
O2066     Zr2074   2.402       .  S
O2066      C2081   1.272       .  A
O2067     Zr2072   2.418       .  S
O2067     Zr2074   2.367       .  S
O2068     Zr2073   2.361       .  S
O2068     Zr2074   2.375       .  S
O2068      H2103   0.959       .  S
O2069     Zr2072   2.444       .  S
O2069     Zr2089   2.400       .  S
O2069      H2106   0.965       .  S
O2070     Zr2073   2.404       .  S
O2070     Zr2089   2.412       .  S
Zr2071     O2096   2.426       .  S
Zr2071     O2098   2.328       .  S
Zr2071     O2077   2.418       .  S
Zr2071     O2078   2.405       .  S
Zr2071     O2079   2.360       .  S
Zr2071     O2080   2.384       .  S
Zr2072     O2091   2.433       .  S
Zr2072     O2084   2.434       .  S
Zr2072     O2085   2.545       .  S
Zr2072     O2078   2.378       .  S
Zr2072     O2079   2.405       .  S
Zr2073     O2075   2.434       .  S
Zr2073     O2097   2.436       .  S
Zr2073     O2099   2.447       .  S
Zr2073     O2077   2.375       .  S
Zr2073     O2080   2.354       .  S
Zr2074     O2100   2.434       .  S
Zr2074     O2101   2.435       .  S
Zr2074     O2076   2.436       .  S
Zr2074     O2077   2.385       .  S
Zr2074     O2078   2.371       .  S
O2075      H2112   0.990       .  S
O2076      H2107   0.990       .  S
O2076      H2121   0.990       .  S
O2078      H2104   0.962       .  S
O2079     Zr2089   2.403       .  S
O2080     Zr2089   2.366       .  S
O2080      H2105   0.960       .  S
C2081      C3177   1.473       .  S
C2082      C3152   1.535       .  S
C2083      C3376   1.485       .  S
O2084      H2120   0.990       .  S
O2086      C2087   1.282       .  A
C2087      C3163   1.528       .  S
O2088     Zr2089   2.439       .  S
O2088      H2117   0.990       .  S
Zr2089     O2092   2.436       .  S
Zr2089     O2093   2.437       .  S
Zr2089     O2094   2.448       .  S
O2090      C2095   1.292       .  A
O2091      H2108   0.990       .  S
O2091      H2123   0.990       .  S
O2092      H2109   0.990       .  S
O2093      H2113   0.990       .  S
O2093      H2122   0.990       .  S
C2095      C3135   1.499       .  S
O2096      H2115   0.989       .  S
O2096      H2119   0.990       .  S
O2097      H2111   0.989       .  S
O2097      H2118   0.990       .  S
O2098      C2102   1.259       .  A
O2099      C2102   1.291       .  A
O2100      H2110   0.990       .  S
O2101      H2114   0.990       .  S
C2102      C3250   1.445       .  S
Zr2125     O2126   2.438       .  S
Zr2125     O2127   2.430       .  S
Zr2125     O2128   2.421       .  S
Zr2125     O2131   2.567       .  S
Zr2125     O2133   2.426       .  S
Zr2125     O2134   2.373       .  S
Zr2125     O2135   2.454       .  S
Zr2125     O2136   2.391       .  S
O2126      H2182   0.990       .  S
O2126      H2190   0.989       .  S
O2127      C2147   1.279       .  A
O2128      C2149   1.286       .  A
O2129     Zr2139   2.370       .  S
O2129      C2148   1.273       .  A
O2130     Zr2138   2.459       .  S
O2130      C2149   1.292       .  A
O2131      C2148   1.310       .  A
O2132     Zr2140   2.401       .  S
O2132      C2147   1.268       .  A
O2133     Zr2138   2.428       .  S
O2133     Zr2140   2.358       .  S
O2134     Zr2139   2.372       .  S
O2134     Zr2140   2.387       .  S
O2134      H2169   0.966       .  S
O2135     Zr2138   2.457       .  S
O2135     Zr2155   2.402       .  S
O2135      H2172   0.966       .  S
O2136     Zr2139   2.395       .  S
O2136     Zr2155   2.425       .  S
Zr2137     O2162   2.465       .  S
Zr2137     O2156   2.464       .  S
Zr2137     O2164   2.296       .  S
Zr2137     O2152   2.398       .  S
Zr2137     O2143   2.382       .  S
Zr2137     O2144   2.390       .  S
Zr2137     O2145   2.357       .  S
Zr2137     O2146   2.364       .  S
Zr2138     O2157   2.434       .  S
Zr2138     O2150   2.434       .  S
Zr2138     O2151   2.603       .  S
Zr2138     O2144   2.371       .  S
Zr2138     O2145   2.374       .  S
Zr2139     O2141   2.435       .  S
Zr2139     O2163   2.433       .  S
Zr2139     O2165   2.397       .  S
Zr2139     O2143   2.346       .  S
Zr2139     O2146   2.334       .  S
Zr2140     O2166   2.437       .  S
Zr2140     O2167   2.445       .  S
Zr2140     O2142   2.439       .  S
Zr2140     O2143   2.393       .  S
Zr2140     O2144   2.389       .  S
O2141      H2178   0.990       .  S
O2142      H2173   0.990       .  S
O2142      H2187   0.990       .  S
O2144      H2170   0.964       .  S
O2145     Zr2155   2.386       .  S
O2146     Zr2155   2.332       .  S
O2146      H2171   0.961       .  S
C2147      C3180   1.485       .  S
C2148      C3205   1.530       .  S
C2149      C3107   1.481       .  S
O2150      H2186   0.990       .  S
O2151      C2153   1.316       .  A
O2152      C2153   1.275       .  A
C2153      C3166   1.543       .  S
O2154     Zr2155   2.439       .  S
O2154      H2183   0.990       .  S
Zr2155     O2158   2.435       .  S
Zr2155     O2159   2.436       .  S
Zr2155     O2160   2.493       .  S
O2156      C2161   1.293       .  A
O2157      H2174   0.990       .  S
O2157      H2189   0.990       .  S
O2158      H2175   0.990       .  S
O2159      H2179   0.990       .  S
O2159      H2188   0.990       .  S
O2160      C2161   1.296       .  A
C2161      C3194   1.538       .  S
O2162      H2181   0.989       .  S
O2162      H2185   0.988       .  S
O2163      H2177   0.989       .  S
O2163      H2184   0.989       .  S
O2164      C2168   1.263       .  A
O2165      C2168   1.282       .  A
O2166      H2176   0.990       .  S
O2167      H2180   0.990       .  S
C2168      C3121   1.412       .  S
Zr2191     O2192   2.438       .  S
Zr2191     O2193   2.412       .  S
Zr2191     O2194   2.430       .  S
Zr2191     O2197   2.572       .  S
Zr2191     O2199   2.421       .  S
Zr2191     O2200   2.377       .  S
Zr2191     O2201   2.437       .  S
Zr2191     O2202   2.381       .  S
O2192      H2248   0.990       .  S
O2192      H2256   0.990       .  S
O2193      C2213   1.280       .  A
O2194      C2215   1.286       .  A
O2195     Zr2205   2.408       .  S
O2195      C2214   1.279       .  A
O2196     Zr2204   2.432       .  S
O2196      C2215   1.286       .  A
O2197      C2214   1.312       .  A
O2198     Zr2206   2.403       .  S
O2198      C2213   1.271       .  A
O2199     Zr2204   2.426       .  S
O2199     Zr2206   2.358       .  S
O2200     Zr2205   2.374       .  S
O2200     Zr2206   2.389       .  S
O2200      H2235   0.966       .  S
O2201     Zr2204   2.452       .  S
O2201     Zr2221   2.375       .  S
O2201      H2238   0.964       .  S
O2202     Zr2205   2.405       .  S
O2202     Zr2221   2.417       .  S
Zr2203     O2228   2.458       .  S
Zr2203     O2222   2.505       .  S
Zr2203     O2230   2.330       .  S
Zr2203     O2218   2.403       .  S
Zr2203     O2209   2.443       .  S
Zr2203     O2210   2.413       .  S
Zr2203     O2211   2.360       .  S
Zr2203     O2212   2.426       .  S
Zr2204     O2223   2.433       .  S
Zr2204     O2216   2.434       .  S
Zr2204     O2217   2.579       .  S
Zr2204     O2210   2.366       .  S
Zr2204     O2211   2.388       .  S
Zr2205     O2207   2.428       .  S
Zr2205     O2229   2.438       .  S
Zr2205     O2231   2.396       .  S
Zr2205     O2209   2.353       .  S
Zr2205     O2212   2.381       .  S
Zr2206     O2232   2.438       .  S
Zr2206     O2233   2.439       .  S
Zr2206     O2208   2.438       .  S
Zr2206     O2209   2.381       .  S
Zr2206     O2210   2.389       .  S
O2207      H2244   0.990       .  S
O2208      H2239   0.990       .  S
O2208      H2253   0.990       .  S
O2210      H2236   0.961       .  S
O2211     Zr2221   2.401       .  S
O2212     Zr2221   2.362       .  S
O2212      H2237   0.961       .  S
C2213      C3236   1.487       .  S
C2214      C3149   1.562       .  S
C2215      C3096   1.466   1_565  S
O2216      H2252   0.990       .  S
O2217      C2219   1.301       .  A
O2218      C2219   1.268       .  A
C2219      C3219   1.548       .  S
O2220     Zr2221   2.438       .  S
O2220      H2249   0.990       .  S
Zr2221     O2224   2.437       .  S
Zr2221     O2225   2.431       .  S
Zr2221     O2226   2.439       .  S
O2222      C2227   1.301       .  A
O2223      H2240   0.990       .  S
O2223      H2255   0.990       .  S
O2224      H2241   0.990       .  S
O2225      H2245   0.990       .  S
O2225      H2254   0.990       .  S
O2226      C2227   1.285       .  A
C2227      C3138   1.514       .  S
O2228      H2247   0.986       .  S
O2228      H2251   0.986       .  S
O2229      H2243   0.990       .  S
O2229      H2250   0.989       .  S
O2230      C2234   1.255       .  A
O2231      C2234   1.265       .  A
O2232      H2242   0.990       .  S
O2233      H2246   0.990       .  S
C2234      C3124   1.399       .  S
Zr2257     O2258   2.440       .  S
Zr2257     O2259   2.458       .  S
Zr2257     O2260   2.436       .  S
Zr2257     O2263   2.561       .  S
Zr2257     O2265   2.436       .  S
Zr2257     O2266   2.374       .  S
Zr2257     O2267   2.446       .  S
Zr2257     O2268   2.386       .  S
O2258      H2314   0.990       .  S
O2258      H2322   0.990       .  S
O2259      C2279   1.284       .  A
O2260      C2281   1.286       .  A
O2261     Zr2271   2.365       .  S
O2261      C2280   1.271       .  A
O2262     Zr2270   2.438       .  S
O2262      C2281   1.287       .  A
O2263      C2280   1.310       .  A
O2264     Zr2272   2.411       .  S
O2264      C2279   1.273       .  A
O2265     Zr2270   2.426       .  S
O2265     Zr2272   2.348       .  S
O2266     Zr2271   2.351       .  S
O2266     Zr2272   2.388       .  S
O2266      H2301   0.953       .  S
O2267     Zr2270   2.436       .  S
O2267     Zr2287   2.399       .  S
O2267      H2304   0.966       .  S
O2268     Zr2271   2.370       .  S
O2268     Zr2287   2.423       .  S
Zr2269     O2294   2.432       .  S
Zr2269     O2296   2.418       .  S
Zr2269     O2275   2.369       .  S
Zr2269     O2276   2.416       .  S
Zr2269     O2277   2.368       .  S
Zr2269     O2278   2.386       .  S
Zr2270     O2289   2.434       .  S
Zr2270     O2282   2.434       .  S
Zr2270     O2283   2.518   1_556  S
Zr2270     O2276   2.403       .  S
Zr2270     O2277   2.414       .  S
Zr2271     O2273   2.438       .  S
Zr2271     O2295   2.456       .  S
Zr2271     O2297   2.393       .  S
Zr2271     O2275   2.343       .  S
Zr2271     O2278   2.391       .  S
Zr2272     O2298   2.429       .  S
Zr2272     O2299   2.433       .  S
Zr2272     O2274   2.436       .  S
Zr2272     O2275   2.364       .  S
Zr2272     O2276   2.380       .  S
O2273      H2310   0.987       .  S
O2274      H2305   0.990       .  S
O2274      H2319   0.990       .  S
O2276      H2302   0.965       .  S
O2277     Zr2287   2.402       .  S
O2278     Zr2287   2.424       .  S
O2278      H2303   0.964       .  S
C2279      C3037   1.480       .  S
C2280      C3068   1.519       .  S
C2281      C3012   1.477       .  S
O2282      H2318   0.990       .  S
O2284      C2285   1.280       .  A
C2285      C3023   1.519       .  S
O2286     Zr2287   2.439       .  S
O2286      H2315   0.990       .  S
Zr2287     O2290   2.435   1_556  S
Zr2287     O2291   2.442       .  S
Zr2287     O2292   2.422   1_556  S
O2288      C2293   1.296       .  A
O2289      H2306   0.990       .  S
O2289      H2321   0.990       .  S
O2290      H2307   0.990       .  S
O2291      H2311   0.991       .  S
O2291      H2320   0.988       .  S
C2293      C3051   1.501       .  S
O2294      H2313   0.991       .  S
O2294      H2317   0.987   1_556  S
O2295      H2309   0.990       .  S
O2295      H2316   0.988       .  S
O2296      C2300   1.266       .  A
O2297      C2300   1.256       .  A
O2298      H2308   0.990       .  S
O2299      H2312   0.990       .  S
C2300      C3079   1.479       .  S
Zr2323     O2324   2.438       .  S
Zr2323     O2325   2.429       .  S
Zr2323     O2326   2.428       .  S
Zr2323     O2329   2.553       .  S
Zr2323     O2331   2.411       .  S
Zr2323     O2332   2.375       .  S
Zr2323     O2333   2.432       .  S
Zr2323     O2334   2.387       .  S
O2324      H2380   0.990       .  S
O2324      H2388   0.990       .  S
O2325      C2345   1.283       .  A
O2326      C2347   1.285       .  A
O2327     Zr2337   2.404       .  S
O2327      C2346   1.280       .  A
O2328     Zr2336   2.417       .  S
O2328      C2347   1.283       .  A
O2329      C2346   1.308       .  A
O2330     Zr2338   2.397       .  S
O2330      C2345   1.268       .  A
O2331     Zr2336   2.397       .  S
O2331     Zr2338   2.363       .  S
O2332     Zr2337   2.369       .  S
O2332     Zr2338   2.388       .  S
O2332      H2367   0.966       .  S
O2333     Zr2336   2.428       .  S
O2333     Zr2353   2.394       .  S
O2333      H2370   0.966       .  S
O2334     Zr2337   2.391       .  S
O2334     Zr2353   2.400       .  S
Zr2335     O2360   2.443   1_556  S
Zr2335     O2362   2.380       .  S
Zr2335     O2341   2.398       .  S
Zr2335     O2342   2.410       .  S
Zr2335     O2343   2.373       .  S
Zr2335     O2344   2.386       .  S
Zr2336     O2355   2.432       .  S
Zr2336     O2348   2.434       .  S
Zr2336     O2349   2.490   1_556  S
Zr2336     O2342   2.389       .  S
Zr2336     O2343   2.389       .  S
Zr2337     O2339   2.436       .  S
Zr2337     O2361   2.415       .  S
Zr2337     O2363   2.419       .  S
Zr2337     O2341   2.361       .  S
Zr2337     O2344   2.354       .  S
Zr2338     O2364   2.438       .  S
Zr2338     O2365   2.436       .  S
Zr2338     O2340   2.433       .  S
Zr2338     O2341   2.374       .  S
Zr2338     O2342   2.383       .  S
O2339      H2376   0.990       .  S
O2340      H2371   0.990       .  S
O2340      H2385   0.990       .  S
O2342      H2368   0.963       .  S
O2343     Zr2353   2.397       .  S
O2344     Zr2353   2.378       .  S
O2344      H2369   0.963       .  S
C2345      C2970   1.490       .  S
C2346      C2995   1.529       .  S
C2347      C2939   1.472       .  S
O2348      H2384   0.990       .  S
O2350      C2351   1.276       .  A
C2351      C2953   1.488       .  S
O2352     Zr2353   2.440       .  S
O2352      H2381   0.990       .  S
Zr2353     O2356   2.437   1_556  S
Zr2353     O2357   2.438       .  S
Zr2353     O2358   2.421   1_556  S
O2354      C2359   1.286       .  A
O2355      H2372   0.990       .  S
O2355      H2387   0.989       .  S
O2356      H2373   0.990       .  S
O2357      H2377   0.990       .  S
O2357      H2386   0.990       .  S
C2359      C2984   1.478       .  S
O2360      H2379   0.991       .  S
O2360      H2383   0.990       .  S
O2361      H2375   0.983       .  S
O2361      H2382   0.987       .  S
O2362      C2366   1.267       .  A
O2363      C2366   1.287       .  A
O2364      H2374   0.990       .  S
O2365      H2378   0.990       .  S
C2366      C3082   1.450       .  S
Zr2389     O2390   2.436       .  S
Zr2389     O2391   2.428       .  S
Zr2389     O2392   2.433       .  S
Zr2389     O2395   2.544       .  S
Zr2389     O2397   2.428       .  S
Zr2389     O2398   2.388       .  S
Zr2389     O2399   2.441       .  S
Zr2389     O2400   2.382       .  S
O2390      H2446   0.990       .  S
O2390      H2454   0.989       .  S
O2391      C2411   1.276       .  A
O2392      C2413   1.288       .  A
O2393     Zr2403   2.426       .  S
O2393      C2412   1.284       .  A
O2394     Zr2402   2.422       .  S
O2394      C2413   1.285       .  A
O2395      C2412   1.307       .  A
O2396     Zr2404   2.405       .  S
O2396      C2411   1.268       .  A
O2397     Zr2402   2.420       .  S
O2397     Zr2404   2.355       .  S
O2398     Zr2403   2.371       .  S
O2398     Zr2404   2.387       .  S
O2398      H2433   0.961       .  S
O2399     Zr2402   2.450       .  S
O2399     Zr2419   2.390       .  S
O2399      H2436   0.966       .  S
O2400     Zr2403   2.403       .  S
O2400     Zr2419   2.401       .  S
Zr2401     O2426   2.470       .  S
Zr2401     O2420   2.458       .  S
Zr2401     O2428   2.324       .  S
Zr2401     O2416   2.397       .  S
Zr2401     O2407   2.379       .  S
Zr2401     O2408   2.409       .  S
Zr2401     O2409   2.364       .  S
Zr2401     O2410   2.374       .  S
Zr2402     O2421   2.433       .  S
Zr2402     O2414   2.434       .  S
Zr2402     O2415   2.570       .  S
Zr2402     O2408   2.368       .  S
Zr2402     O2409   2.372       .  S
Zr2403     O2405   2.434       .  S
Zr2403     O2427   2.421       .  S
Zr2403     O2429   2.470       .  S
Zr2403     O2407   2.338       .  S
Zr2403     O2410   2.339       .  S
Zr2404     O2430   2.433       .  S
Zr2404     O2431   2.439       .  S
Zr2404     O2406   2.437       .  S
Zr2404     O2407   2.378       .  S
Zr2404     O2408   2.384       .  S
O2405      H2442   0.989       .  S
O2406      H2437   0.990       .  S
O2406      H2451   0.990       .  S
O2408      H2434   0.963       .  S
O2409     Zr2419   2.380       .  S
O2410     Zr2419   2.382       .  S
O2410      H2435   0.963       .  S
C2411      C3040   1.482       .  S
C2412      C2998   1.540       .  S
C2413      C3093   1.472       .  S
O2414      H2450   0.990       .  S
O2415      C2417   1.300       .  A
O2416      C2417   1.264       .  A
C2417      C3026   1.533       .  S
O2418     Zr2419   2.440       .  S
O2418      H2447   0.990       .  S
Zr2419     O2422   2.437       .  S
Zr2419     O2423   2.437       .  S
Zr2419     O2424   2.427       .  S
O2420      C2425   1.290       .  A
O2421      H2438   0.990       .  S
O2421      H2453   0.990       .  S
O2422      H2439   0.990       .  S
O2423      H2443   0.990       .  S
O2423      H2452   0.990       .  S
O2424      C2425   1.284       .  A
C2425      C2981   1.481       .  S
O2426      H2445   0.986       .  S
O2426      H2449   0.986       .  S
O2427      H2441   0.989       .  S
O2427      H2448   0.989       .  S
O2428      C2432   1.267       .  A
O2429      C2432   1.298       .  A
O2430      H2440   0.990       .  S
O2431      H2444   0.990       .  S
C2432      C2925   1.476       .  S
Zr2455     O2456   2.439       .  S
Zr2455     O2457   2.476       .  S
Zr2455     O2458   2.421       .  S
Zr2455     O2461   2.549       .  S
Zr2455     O2463   2.420       .  S
Zr2455     O2464   2.358       .  S
Zr2455     O2465   2.456       .  S
Zr2455     O2466   2.373       .  S
O2456      H2512   0.990       .  S
O2456      H2520   0.989       .  S
O2457      C2477   1.281       .  A
O2458      C2479   1.284       .  A
O2459     Zr2469   2.391       .  S
O2459      C2478   1.275       .  A
O2460     Zr2468   2.451       .  S
O2460      C2479   1.288       .  A
O2461      C2478   1.308       .  A
O2462     Zr2470   2.397       .  S
O2462      C2477   1.262       .  A
O2463     Zr2468   2.419       .  S
O2463     Zr2470   2.353       .  S
O2464     Zr2469   2.351       .  S
O2464     Zr2470   2.406       .  S
O2464      H2499   0.955       .  S
O2465     Zr2468   2.428       .  S
O2465     Zr2485   2.400       .  S
O2465      H2502   0.966       .  S
O2466     Zr2469   2.370       .  S
O2466     Zr2485   2.416       .  S
Zr2467     O2492   2.439       .  S
Zr2467     O2486   2.467       .  S
Zr2467     O2494   2.428       .  S
Zr2467     O2482   2.427       .  S
Zr2467     O2473   2.398       .  S
Zr2467     O2474   2.409       .  S
Zr2467     O2475   2.395       .  S
Zr2467     O2476   2.370       .  S
Zr2468     O2487   2.433       .  S
Zr2468     O2480   2.435       .  S
Zr2468     O2481   2.500       .  S
Zr2468     O2474   2.412       .  S
Zr2468     O2475   2.402       .  S
Zr2469     O2471   2.437       .  S
Zr2469     O2493   2.457       .  S
Zr2469     O2495   2.377       .  S
Zr2469     O2473   2.398       .  S
Zr2469     O2476   2.389       .  S
Zr2470     O2496   2.451       .  S
Zr2470     O2497   2.439       .  S
Zr2470     O2472   2.447       .  S
Zr2470     O2473   2.391       .  S
Zr2470     O2474   2.359       .  S
O2471      H2508   0.985       .  S
O2472      H2503   0.991       .  S
O2472      H2517   0.991       .  S
O2474      H2500   0.959       .  S
O2475     Zr2485   2.381       .  S
O2476     Zr2485   2.391       .  S
O2476      H2501   0.960       .  S
C2477      C2967   1.478       .  S
C2478      C3065   1.523       .  S
C2479      C3110   1.483       .  S
O2480      H2516   0.990       .  S
O2481      C2483   1.297       .  A
O2482      C2483   1.282       .  A
C2483      C2956   1.496       .  S
O2484     Zr2485   2.438       .  S
O2484      H2513   0.990       .  S
Zr2485     O2488   2.433       .  S
Zr2485     O2489   2.441       .  S
Zr2485     O2490   2.443       .  S
O2486      C2491   1.290       .  A
O2487      H2504   0.990       .  S
O2487      H2519   0.990       .  S
O2488      H2505   0.990       .  S
O2489      H2509   0.990       .  S
O2489      H2518   0.986       .  S
O2490      C2491   1.285       .  A
C2491      C3054   1.501       .  S
O2492      H2511   0.989       .  S
O2492      H2515   0.990       .  S
O2493      H2507   0.989       .  S
O2493      H2514   0.990       .  S
O2494      C2498   1.278       .  A
O2495      C2498   1.258       .  A
O2496      H2506   0.988       .  S
O2497      H2510   0.990       .  S
C2498      C2928   1.473       .  S
Zr2521     O2522   2.439       .  S
Zr2521     O2523   2.465       .  S
Zr2521     O2524   2.441       .  S
Zr2521     O2527   2.534       .  S
Zr2521     O2529   2.402       .  S
Zr2521     O2530   2.374       .  S
Zr2521     O2531   2.431       .  S
Zr2521     O2532   2.395       .  S
O2522      H2578   0.990       .  S
O2522      H2586   0.990       .  S
O2523      C2543   1.291       .  A
O2524      C2545   1.289       .  A
O2525     Zr2535   2.441       .  S
O2525      C2544   1.285       .  A
O2526     Zr2534   2.430       .  S
O2526      C2545   1.286       .  A
O2527      C2544   1.305       .  A
O2528     Zr2536   2.393       .  S
O2528      C2543   1.271       .  A
O2529     Zr2534   2.402       .  S
O2529     Zr2536   2.352       .  S
O2530     Zr2535   2.382       .  S
O2530     Zr2536   2.386       .  S
O2530      H2565   0.966       .  S
O2531     Zr2534   2.444       .  S
O2531     Zr2551   2.409       .  S
O2531      H2568   0.965       .  S
O2532     Zr2535   2.394       .  S
O2532     Zr2551   2.413       .  S
Zr2533     O2558   2.441       .  S
Zr2533     O2552   2.448       .  S
Zr2533     O2560   2.331       .  S
Zr2533     O2548   2.430       .  S
Zr2533     O2539   2.409       .  S
Zr2533     O2540   2.390       .  S
Zr2533     O2541   2.344       .  S
Zr2533     O2542   2.385       .  S
Zr2534     O2553   2.433       .  S
Zr2534     O2546   2.431       .  S
Zr2534     O2547   2.531       .  S
Zr2534     O2540   2.382       .  S
Zr2534     O2541   2.405       .  S
Zr2535     O2537   2.435       .  S
Zr2535     O2559   2.431       .  S
Zr2535     O2561   2.473       .  S
Zr2535     O2539   2.349       .  S
Zr2535     O2542   2.369       .  S
Zr2536     O2562   2.439       .  S
Zr2536     O2563   2.435       .  S
Zr2536     O2538   2.449       .  S
Zr2536     O2539   2.357       .  S
Zr2536     O2540   2.383       .  S
O2537      H2574   0.990       .  S
O2538      H2569   0.989       .  S
O2538      H2583   0.990       .  S
O2540      H2566   0.962       .  S
O2541     Zr2551   2.401       .  S
O2542     Zr2551   2.368       .  S
O2542      H2567   0.963       .  S
C2543      C2869   1.488       .  S
C2544      C2883   1.530       .  S
C2545      C2942   1.507       .  S
O2546      H2582   0.990       .  S
O2547      C2549   1.296       .  A
O2548      C2549   1.281       .  A
C2549      C2855   1.533       .  S
O2550     Zr2551   2.439       .  S
O2550      H2579   0.990       .  S
Zr2551     O2554   2.436       .  S
Zr2551     O2555   2.437       .  S
Zr2551     O2556   2.468       .  S
O2552      C2557   1.285       .  A
O2553      H2570   0.990       .  S
O2553      H2585   0.990       .  S
O2554      H2571   0.990       .  S
O2555      H2575   0.990       .  S
O2555      H2584   0.990       .  S
O2556      C2557   1.288       .  A
C2557      C2897   1.501       .  S
O2558      H2577   0.984       .  S
O2558      H2581   0.986       .  S
O2559      H2573   0.989       .  S
O2559      H2580   0.990       .  S
O2560      C2564   1.256       .  A
O2561      C2564   1.296       .  A
O2562      H2572   0.990       .  S
O2563      H2576   0.990       .  S
C2564      C2911   1.431       .  S
Zr2587     O2588   2.432       .  S
Zr2587     O2589   2.463       .  S
Zr2587     O2590   2.423       .  S
Zr2587     O2593   2.577       .  S
Zr2587     O2595   2.412       .  S
Zr2587     O2596   2.360       .  S
Zr2587     O2597   2.444       .  S
Zr2587     O2598   2.383       .  S
O2588      H2644   0.990       .  S
O2588      H2652   0.990       .  S
O2589      C2609   1.291       .  A
O2590      C2611   1.286       .  A
O2591     Zr2601   2.387       .  S
O2591      C2610   1.275       .  A
O2592     Zr2600   2.482       .  S
O2592      C2611   1.298       .  A
O2593      C2610   1.313       .  A
O2594     Zr2602   2.388       .  S
O2594      C2609   1.266       .  A
O2595     Zr2600   2.413       .  S
O2595     Zr2602   2.353       .  S
O2596     Zr2601   2.373       .  S
O2596     Zr2602   2.397       .  S
O2596      H2631   0.965       .  S
O2597     Zr2600   2.442       .  S
O2597     Zr2617   2.396       .  S
O2597      H2634   0.965       .  S
O2598     Zr2601   2.401       .  S
O2598     Zr2617   2.427       .  S
Zr2599     O2624   2.486       .  S
Zr2599     O2618   2.477       .  S
Zr2599     O2626   2.312       .  S
Zr2599     O2614   2.421       .  S
Zr2599     O2605   2.403       .  S
Zr2599     O2606   2.375       .  S
Zr2599     O2607   2.366       .  S
Zr2599     O2608   2.407       .  S
Zr2600     O2619   2.434       .  S
Zr2600     O2612   2.428       .  S
Zr2600     O2613   2.579       .  S
Zr2600     O2606   2.382       .  S
Zr2600     O2607   2.384       .  S
Zr2601     O2603   2.437       .  S
Zr2601     O2625   2.440       .  S
Zr2601     O2627   2.391       .  S
Zr2601     O2605   2.335       .  S
Zr2601     O2608   2.389       .  S
Zr2602     O2628   2.441       .  S
Zr2602     O2629   2.448       .  S
Zr2602     O2604   2.459       .  S
Zr2602     O2605   2.384       .  S
Zr2602     O2606   2.379       .  S
O2603      H2640   0.989       .  S
O2604      H2635   0.988       .  S
O2604      H2649   0.990       .  S
O2606      H2632   0.960       .  S
O2607     Zr2617   2.388       .  S
O2608     Zr2617   2.339       .  S
O2608      H2633   0.961       .  S
C2609      C2813   1.483       .  S
C2610      C2841   1.538       .  S
C2611      C3009   1.515       .  S
O2612      H2648   0.990       .  S
O2613      C2615   1.312       .  A
O2614      C2615   1.281       .  A
C2615      C2802   1.535       .  S
O2616     Zr2617   2.439       .  S
O2616      H2645   0.990       .  S
Zr2617     O2620   2.435       .  S
Zr2617     O2621   2.431       .  S
Zr2617     O2622   2.488       .  S
O2618      C2623   1.294       .  A
O2619      H2636   0.990       .  S
O2619      H2651   0.990       .  S
O2620      H2637   0.990       .  S
O2621      H2641   0.990       .  S
O2621      H2650   0.990       .  S
O2622      C2623   1.295       .  A
C2623      C2827   1.520       .  S
O2624      H2643   0.992       .  S
O2624      H2647   0.989       .  S
O2625      H2639   0.989       .  S
O2625      H2646   0.988       .  S
O2626      C2630   1.259       .  A
O2627      C2630   1.262       .  A
O2628      H2638   0.989       .  S
O2629      H2642   0.989       .  S
C2630      C2914   1.410       .  S
Zr2653     O2654   2.440   1_655  S
Zr2653     O2656   2.442       .  S
Zr2653     O2661   2.410       .  S
Zr2653     O2662   2.371       .  S
Zr2653     O2663   2.438   1_655  S
Zr2653     O2664   2.392   1_655  S
O2654      H2718   0.990       .  S
O2655      C2675   1.287       .  A
O2656      C2677   1.287       .  A
O2657     Zr2667   2.427       .  S
O2658     Zr2666   2.450       .  S
O2658      C2677   1.289       .  A
O2659      C2676   1.308       .  A
O2660     Zr2668   2.379       .  S
O2661     Zr2666   2.408       .  S
O2661     Zr2668   2.359       .  S
O2662     Zr2667   2.381   1_655  S
O2662     Zr2668   2.391       .  S
O2662      H2697   0.966       .  S
O2663     Zr2666   2.440   1_455  S
O2663     Zr2683   2.396       .  S
O2663      H2700   0.965       .  S
O2664     Zr2667   2.392       .  S
O2664     Zr2683   2.411       .  S
Zr2665     O2690   2.421       .  S
Zr2665     O2684   2.485   1_655  S
Zr2665     O2692   2.401       .  S
Zr2665     O2680   2.437       .  S
Zr2665     O2671   2.386       .  S
Zr2665     O2672   2.407       .  S
Zr2665     O2673   2.368   1_655  S
Zr2665     O2674   2.387   1_655  S
Zr2666     O2685   2.433       .  S
Zr2666     O2678   2.434       .  S
Zr2666     O2679   2.528       .  S
Zr2666     O2672   2.387       .  S
Zr2666     O2673   2.407   1_655  S
Zr2667     O2669   2.436       .  S
Zr2667     O2691   2.414   1_455  S
Zr2667     O2693   2.448   1_455  S
Zr2667     O2671   2.339   1_455  S
Zr2667     O2674   2.375       .  S
Zr2668     O2694   2.438       .  S
Zr2668     O2695   2.436       .  S
Zr2668     O2670   2.449       .  S
Zr2668     O2671   2.359       .  S
Zr2668     O2672   2.365       .  S
O2669      H2706   0.990       .  S
O2670      H2701   0.988       .  S
O2670      H2715   0.990       .  S
O2672      H2698   0.960       .  S
O2673     Zr2683   2.402       .  S
O2674     Zr2683   2.386       .  S
O2674      H2699   0.964       .  S
C2675      C2816   1.475       .  S
C2676      C2886   1.545       .  S
C2677      C3264   1.486       .  S
O2678      H2714   0.990       .  S
O2679      C2681   1.300       .  A
O2680      C2681   1.286       .  A
C2681      C2799   1.520       .  S
O2682     Zr2683   2.440       .  S
O2682      H2711   0.990       .  S
Zr2683     O2686   2.437       .  S
Zr2683     O2687   2.437       .  S
Zr2683     O2688   2.433       .  S
O2684      C2689   1.291       .  A
O2685      H2702   0.990       .  S
O2685      H2717   0.990       .  S
O2686      H2703   0.990       .  S
O2687      H2707   0.990       .  S
O2687      H2716   0.990       .  S
O2688      C2689   1.282       .  A
C2689      C2900   1.504       .  S
O2690      H2709   0.988       .  S
O2690      H2713   0.990       .  S
O2691      H2705   0.988       .  S
O2691      H2712   0.989   1_655  S
O2692      C2696   1.273       .  A
O2693      C2696   1.293       .  A
O2694      H2704   0.989       .  S
O2695      H2708   0.990       .  S
C2696      C2785   1.465       .  S
Zr2719     O2720   2.441       .  S
Zr2719     O2722   2.426       .  S
Zr2719     O2727   2.415       .  S
Zr2719     O2728   2.361       .  S
Zr2719     O2729   2.447       .  S
Zr2719     O2730   2.371   1_455  S
O2720      H2784   0.990   1_455  S
O2721      C2741   1.287       .  A
O2722      C2743   1.284       .  A
O2723     Zr2733   2.350   1_655  S
O2724     Zr2732   2.476       .  S
O2724      C2743   1.293       .  A
O2725      C2742   1.311       .  A
O2726     Zr2734   2.393       .  S
O2727     Zr2732   2.411       .  S
O2727     Zr2734   2.365       .  S
O2728     Zr2733   2.365       .  S
O2728     Zr2734   2.391       .  S
O2728      H2763   0.966       .  S
O2729     Zr2732   2.437       .  S
O2729     Zr2749   2.406   1_455  S
O2729      H2766   0.965       .  S
O2730     Zr2733   2.374   1_655  S
O2730     Zr2749   2.420       .  S
Zr2731     O2756   2.413       .  S
Zr2731     O2750   2.474       .  S
Zr2731     O2758   2.427       .  S
Zr2731     O2746   2.454       .  S
Zr2731     O2737   2.411       .  S
Zr2731     O2738   2.405       .  S
Zr2731     O2739   2.380       .  S
Zr2731     O2740   2.375       .  S
Zr2732     O2751   2.433       .  S
Zr2732     O2744   2.434       .  S
Zr2732     O2745   2.528       .  S
Zr2732     O2738   2.409       .  S
Zr2732     O2739   2.415       .  S
Zr2733     O2735   2.450   1_455  S
Zr2733     O2757   2.458       .  S
Zr2733     O2759   2.384       .  S
Zr2733     O2737   2.387       .  S
Zr2733     O2740   2.396       .  S
Zr2734     O2760   2.437       .  S
Zr2734     O2761   2.437       .  S
Zr2734     O2736   2.449       .  S
Zr2734     O2737   2.379       .  S
Zr2734     O2738   2.365       .  S
O2735      H2772   0.989       .  S
O2736      H2767   0.989       .  S
O2736      H2781   0.990       .  S
O2738      H2764   0.961       .  S
O2739     Zr2749   2.385   1_455  S
O2740     Zr2749   2.385   1_455  S
O2740      H2765   0.964   1_455  S
C2741      C2872   1.490       .  S
C2742      C2844   1.514       .  S
C2743      C3278   1.491       .  S
O2744      H2780   0.990       .  S
O2745      C2747   1.299       .  A
O2746      C2747   1.290       .  A
C2747      C2858   1.531       .  S
O2748     Zr2749   2.440       .  S
O2748      H2777   0.990       .  S
Zr2749     O2752   2.436       .  S
Zr2749     O2753   2.440       .  S
Zr2749     O2754   2.457       .  S
O2750      C2755   1.290   1_455  A
O2751      H2768   0.990       .  S
O2751      H2783   0.990       .  S
O2752      H2769   0.990       .  S
O2753      H2773   0.991       .  S
O2753      H2782   0.988       .  S
O2754      C2755   1.286       .  A
C2755      C2830   1.507       .  S
O2756      H2775   0.988       .  S
O2756      H2779   0.988       .  S
O2757      H2771   0.990       .  S
O2757      H2778   0.988       .  S
O2758      C2762   1.278       .  A
O2759      C2762   1.258       .  A
O2760      H2770   0.990       .  S
O2761      H2774   0.990       .  S
C2762      C2788   1.474       .  S
C2785      C2786   1.384       .  A
C2785      C2790   1.385       .  A
C2786      C2787   1.404       .  A
C2786      C2791   1.448       .  S
C2787      C2788   1.438   1_655  A
C2787      C2794   1.447       .  S
C2788      C2789   1.419       .  A
C2789      C2790   1.403   1_455  A
C2789      C2792   1.445       .  S
C2790      C2793   1.428       .  S
C2791      N2798   1.157       .  T
C2792      N2797   1.155       .  T
C2793      N2795   1.149       .  T
C2794      N2796   1.158       .  T
C2799      C2800   1.402       .  A
C2799      C2804   1.428       .  A
C2800      C2801   1.405       .  A
C2800      C2805   1.453       .  S
C2801      C2802   1.420       .  A
C2801      C2808   1.432       .  S
C2802      C2803   1.421       .  A
C2803      C2804   1.445       .  A
C2803      C2806   1.445       .  S
C2804      C2807   1.445       .  S
C2805      N2812   1.157       .  T
C2806      N2811   1.157       .  T
C2807      N2809   1.157       .  T
C2808      N2810   1.152       .  T
C2813      C2814   1.405       .  A
C2813      C2818   1.425       .  A
C2814      C2815   1.405       .  A
C2814      C2819   1.451       .  S
C2815      C2816   1.419       .  A
C2815      C2822   1.448       .  S
C2816      C2817   1.400       .  A
C2817      C2818   1.402       .  A
C2817      C2820   1.455       .  S
C2818      C2821   1.446       .  S
C2819      N2826   1.157       .  T
C2820      N2825   1.158       .  T
C2821      N2823   1.155       .  T
C2827      C2828   1.423       .  A
C2827      C2832   1.417       .  A
C2828      C2829   1.421       .  A
C2828      C2833   1.445       .  S
C2829      C2830   1.408       .  A
C2829      C2836   1.449       .  S
C2830      C2831   1.414       .  A
C2831      C2832   1.423       .  A
C2831      C2834   1.446       .  S
C2832      C2835   1.448       .  S
C2833      N2840   1.157       .  T
C2834      N2839   1.157       .  T
C2835      N2837   1.157       .  T
C2836      N2838   1.157       .  T
C2841      C2842   1.429       .  A
C2841      C2846   1.419       .  A
C2842      C2843   1.420       .  A
C2842      C2847   1.447       .  S
C2843      C2844   1.408       .  A
C2843      C2850   1.453   1_655  S
C2844      C2845   1.424       .  A
C2845      C2846   1.438       .  A
C2845      C2848   1.447       .  S
C2846      C2849   1.446       .  S
C2847      N2854   1.156       .  T
C2848      N2853   1.157       .  T
C2849      N2851   1.157       .  T
C2850      N2852   1.157       .  T
C2855      C2856   1.404       .  A
C2855      C2860   1.440       .  A
C2856      C2857   1.387       .  A
C2856      C2861   1.443       .  S
C2857      C2858   1.396       .  A
C2857      C2864   1.445       .  S
C2858      C2859   1.434       .  A
C2859      C2860   1.464       .  A
C2859      C2862   1.443       .  S
C2860      C2863   1.443       .  S
C2861      N2868   1.157       .  T
C2862      N2867   1.157       .  T
C2863      N2865   1.157       .  T
C2864      N2866   1.156       .  T
C2869      C2870   1.407       .  A
C2869      C2874   1.424       .  A
C2870      C2871   1.408       .  A
C2870      C2875   1.450       .  S
C2871      C2872   1.421       .  A
C2871      C2878   1.449       .  S
C2872      C2873   1.406       .  A
C2873      C2874   1.407       .  A
C2873      C2876   1.453       .  S
C2874      C2877   1.449       .  S
C2875      N2882   1.156       .  T
C2876      N2881   1.157       .  T
C2877      N2879   1.157       .  T
C2883      C2884   1.410       .  A
C2883      C2888   1.423       .  A
C2884      C2885   1.425       .  A
C2884      C2889   1.449       .  S
C2885      C2886   1.428       .  A
C2885      C2892   1.447       .  S
C2886      C2887   1.423       .  A
C2887      C2888   1.440       .  A
C2887      C2890   1.447       .  S
C2888      C2891   1.448       .  S
C2889      N2896   1.156       .  T
C2890      N2895   1.157       .  T
C2891      N2893   1.157       .  T
C2892      N2894   1.157       .  T
C2897      C2898   1.420       .  A
C2897      C2902   1.413       .  A
C2898      C2899   1.421       .  A
C2898      C2903   1.449       .  S
C2899      C2900   1.413       .  A
C2899      C2906   1.450       .  S
C2900      C2901   1.420       .  A
C2901      C2902   1.418       .  A
C2901      C2904   1.450       .  S
C2902      C2905   1.451       .  S
C2903      N2910   1.157       .  T
C2904      N2909   1.157       .  T
C2905      N2907   1.157       .  T
C2906      N2908   1.157       .  T
C2911      C2912   1.394       .  A
C2911      C2916   1.391       .  A
C2912      C2913   1.389   1_455  A
C2912      C2917   1.450       .  S
C2913      C2914   1.410       .  A
C2913      C2920   1.446       .  S
C2914      C2915   1.401   1_655  A
C2915      C2916   1.377       .  A
C2915      C2918   1.456       .  S
C2916      C2919   1.435       .  S
C2917      N2924   1.157       .  T
C2918      N2923   1.157       .  T
C2919      N2921   1.152       .  T
C2920      N2922   1.156       .  T
C2925      C2926   1.383       .  A
C2925      C2930   1.387       .  A
C2926      C2927   1.405       .  A
C2926      C2931   1.450       .  S
C2927      C2928   1.442       .  A
C2927      C2934   1.446       .  S
C2928      C2929   1.423       .  A
C2929      C2930   1.403       .  A
C2929      C2932   1.446       .  S
C2930      C2933   1.436       .  S
C2931      N2938   1.157       .  T
C2932      N2937   1.157       .  T
C2933      N2935   1.153       .  T
C2934      N2936   1.157       .  T
C2939      C2940   1.404       .  A
C2939      C2944   1.405       .  A
C2940      C2941   1.410       .  A
C2940      C2945   1.454       .  S
C2941      C2942   1.429       .  A
C2941      C2948   1.451       .  S
C2942      C2943   1.426       .  A
C2943      C2944   1.407       .  A
C2943      C2946   1.450       .  S
C2944      C2947   1.454       .  S
C2945      N2952   1.157       .  T
C2946      N2951   1.157       .  T
C2947      N2949   1.157       .  T
C2948      N2950   1.157       .  T
C2953      C2954   1.418       .  A
C2953      C2958   1.405       .  A
C2954      C2955   1.420       .  A
C2954      C2959   1.447       .  S
C2955      C2956   1.409       .  A
C2955      C2962   1.449       .  S
C2956      C2957   1.421       .  A
C2957      C2958   1.414       .  A
C2957      C2960   1.449       .  S
C2958      C2961   1.451       .  S
C2960      N2965   1.157       .  T
C2961      N2963   1.157       .  T
C2962      N2964   1.157       .  T
C2967      C2968   1.412       .  A
C2967      C2972   1.408       .  A
C2968      C2969   1.419       .  A
C2968      C2973   1.449       .  S
C2969      C2970   1.423       .  A
C2969      C2976   1.449       .  S
C2970      C2971   1.403       .  A
C2971      C2972   1.392       .  A
C2971      C2974   1.455       .  S
C2972      C2975   1.436       .  S
C2973      N2980   1.157       .  T
C2974      N2979   1.157       .  T
C2975      N2977   1.154       .  T
C2976      N2978   1.157       .  T
C2981      C2982   1.407       .  A
C2981      C2986   1.418       .  A
C2982      C2983   1.411       .  A
C2982      C2987   1.451       .  S
C2983      C2984   1.417       .  A
C2983      C2990   1.451       .  S
C2984      C2985   1.405       .  A
C2985      C2986   1.409       .  A
C2985      C2988   1.452       .  S
C2986      C2989   1.450       .  S
C2987      N2994   1.157       .  T
C2988      N2993   1.157       .  T
C2989      N2991   1.157       .  T
C2995      C2996   1.421       .  A
C2995      C3000   1.415       .  A
C2996      C2997   1.442       .  A
C2996      C3001   1.447       .  S
C2997      C2998   1.425       .  A
C2997      C3004   1.447       .  S
C2998      C2999   1.424       .  A
C2999      C3000   1.419       .  A
C2999      C3002   1.450       .  S
C3000      C3003   1.450       .  S
C3001      N3008   1.157       .  T
C3002      N3007   1.157       .  T
C3003      N3005   1.156       .  T
C3004      N3006   1.157       .  T
C3009      C3010   1.424       .  A
C3009      C3014   1.432       .  A
C3010      C3011   1.413       .  A
C3010      C3015   1.448       .  S
C3011      C3012   1.403       .  A
C3011      C3018   1.448       .  S
C3012      C3013   1.401       .  A
C3013      C3014   1.411       .  A
C3013      C3016   1.454       .  S
C3014      C3017   1.449       .  S
C3015      N3022   1.157       .  T
C3016      N3021   1.157       .  T
C3017      N3019   1.157       .  T
C3018      N3020   1.155       .  T
C3023      C3024   1.428       .  A
C3023      C3028   1.400       .  A
C3024      C3025   1.452       .  A
C3024      C3029   1.444       .  S
C3025      C3026   1.427       .  A
C3025      C3032   1.444       .  S
C3026      C3027   1.414       .  A
C3027      C3028   1.393       .  A
C3027      C3030   1.446       .  S
C3028      C3031   1.449       .  S
C3029      N3036   1.157       .  T
C3030      N3035   1.155       .  T
C3031      N3033   1.155       .  T
C3032      N3034   1.157       .  T
C3037      C3038   1.407       .  A
C3037      C3042   1.413       .  A
C3038      C3039   1.399       .  A
C3038      C3043   1.448       .  S
C3039      C3040   1.410       .  A
C3039      C3046   1.447       .  S
C3040      C3041   1.415       .  A
C3041      C3042   1.413       .  A
C3041      C3044   1.451       .  S
C3042      C3045   1.446       .  S
C3043      N3050   1.157       .  T
C3044      N3049   1.157       .  T
C3045      N3047   1.156       .  T
C3046      N3048   1.156       .  T
C3051      C3052   1.409       .  A
C3051      C3056   1.415       .  A
C3052      C3053   1.418       .  A
C3052      C3057   1.447       .  S
C3053      C3054   1.420       .  A
C3053      C3060   1.447       .  S
C3054      C3055   1.411       .  A
C3055      C3056   1.416       .  A
C3055      C3058   1.450       .  S
C3056      C3059   1.445       .  S
C3057      N3064   1.157       .  T
C3058      N3063   1.157       .  T
C3059      N3061   1.156       .  T
C3060      N3062   1.156       .  T
C3065      C3066   1.430       .  A
C3065      C3070   1.410       .  A
C3066      C3067   1.425       .  A
C3066      C3071   1.446       .  S
C3067      C3068   1.406       .  A
C3067      C3074   1.450       .  S
C3068      C3069   1.428       .  A
C3069      C3070   1.425       .  A
C3069      C3072   1.447       .  S
C3070      C3073   1.450       .  S
C3071      N3078   1.157       .  T
C3072      N3077   1.157       .  T
C3073      N3075   1.157       .  T
C3074      N3076   1.157       .  T
C3079      C3080   1.424       .  A
C3079      C3084   1.430       .  A
C3080      C3081   1.405   1_556  A
C3081      C3082   1.387   1_554  A
C3082      C3083   1.385       .  A
C3083      C3084   1.403       .  A
C3083      C3086   1.450       .  S
C3084      C3087   1.447       .  S
C3085      N3092   1.157       .  T
C3086      N3091   1.157       .  T
C3087      N3089   1.157       .  T
C3088      N3090   1.153       .  T
C3093      C3094   1.410       .  A
C3093      C3098   1.415       .  A
C3094      C3095   1.401       .  A
C3094      C3099   1.452       .  S
C3095      C3096   1.409       .  A
C3095      C3102   1.452       .  S
C3096      C3097   1.408       .  A
C3097      C3098   1.410       .  A
C3097      C3100   1.451       .  S
C3098      C3101   1.451       .  S
C3099      N3106   1.157       .  T
C3100      N3105   1.157   1_545  T
C3101      N3103   1.157       .  T
C3102      N3104   1.157   1_545  T
C3107      C3108   1.413       .  A
C3107      C3112   1.412       .  A
C3108      C3109   1.416       .  A
C3108      C3113   1.450       .  S
C3109      C3110   1.414       .  A
C3109      C3116   1.449       .  S
C3110      C3111   1.412       .  A
C3111      C3112   1.403       .  A
C3111      C3114   1.453       .  S
C3112      C3115   1.453       .  S
C3113      N3120   1.157       .  T
C3114      N3119   1.157       .  T
C3115      N3117   1.157       .  T
C3116      N3118   1.157       .  T
C3121      C3122   1.397       .  A
C3121      C3126   1.406       .  A
C3122      C3123   1.376       .  A
C3122      C3127   1.449       .  S
C3123      C3124   1.395       .  A
C3123      C3130   1.444       .  S
C3124      C3125   1.403       .  A
C3125      C3126   1.383       .  A
C3125      C3128   1.451       .  S
C3126      C3129   1.455       .  S
C3127      N3134   1.156       .  T
C3128      N3133   1.157       .  T
C3129      N3131   1.157       .  T
C3130      N3132   1.153       .  T
C3135      C3136   1.419       .  A
C3135      C3140   1.404       .  A
C3136      C3137   1.420       .  A
C3136      C3141   1.447       .  S
C3137      C3138   1.412       .  A
C3137      C3144   1.449       .  S
C3138      C3139   1.427       .  A
C3139      C3140   1.418       .  A
C3139      C3142   1.447       .  S
C3140      C3143   1.451       .  S
C3142      N3147   1.156       .  T
C3143      N3145   1.157       .  T
C3144      N3146   1.157       .  T
C3149      C3150   1.442       .  A
C3149      C3154   1.427       .  A
C3150      C3151   1.426       .  A
C3150      C3155   1.449       .  S
C3151      C3152   1.407       .  A
C3151      C3158   1.454       .  S
C3152      C3153   1.425       .  A
C3153      C3154   1.441       .  A
C3153      C3156   1.449       .  S
C3154      C3157   1.447       .  S
C3155      N3162   1.156       .  T
C3156      N3161   1.157       .  T
C3157      N3159   1.157       .  T
C3158      N3160   1.157       .  T
C3163      C3164   1.407       .  A
C3163      C3168   1.428       .  A
C3164      C3165   1.407       .  A
C3164      C3169   1.453       .  S
C3165      C3166   1.422       .  A
C3165      C3172   1.433       .  S
C3166      C3167   1.425       .  A
C3167      C3168   1.449       .  A
C3167      C3170   1.445       .  S
C3168      C3171   1.445       .  S
C3169      N3176   1.157       .  T
C3170      N3175   1.157       .  T
C3171      N3173   1.157   1_556  T
C3172      N3174   1.152       .  T
C3177      C3178   1.411       .  A
C3177      C3182   1.411       .  A
C3178      C3179   1.401       .  A
C3178      C3183   1.451       .  S
C3179      C3180   1.412       .  A
C3179      C3186   1.450       .  S
C3180      C3181   1.418       .  A
C3181      C3182   1.413       .  A
C3181      C3184   1.451       .  S
C3182      C3185   1.451       .  S
C3183      N3190   1.158       .  T
C3184      N3189   1.157       .  T
C3185      N3187   1.157       .  T
C3186      N3188   1.156       .  T
C3191      C3192   1.427       .  A
C3191      C3196   1.416       .  A
C3192      C3193   1.435       .  A
C3192      C3197   1.449       .  S
C3193      C3194   1.426       .  A
C3193      C3200   1.449       .  S
C3194      C3195   1.420       .  A
C3195      C3196   1.414       .  A
C3195      C3198   1.446       .  S
C3196      C3199   1.445       .  S
C3197      N3204   1.157       .  T
C3198      N3203   1.158       .  T
C3199      N3201   1.156       .  T
C3200      N3202   1.157       .  T
C3205      C3206   1.419       .  A
C3205      C3210   1.421       .  A
C3206      C3207   1.412       .  A
C3206      C3211   1.453       .  S
C3207      C3208   1.423       .  A
C3207      C3214   1.455       .  S
C3208      C3209   1.425       .  A
C3209      C3210   1.443       .  A
C3209      C3212   1.446       .  S
C3210      C3213   1.446       .  S
C3211      N3218   1.157       .  T
C3212      N3217   1.157       .  T
C3213      N3215   1.157       .  T
C3214      N3216   1.157       .  T
C3219      C3220   1.432       .  A
C3219      C3224   1.413       .  A
C3220      C3221   1.460       .  A
C3220      C3225   1.443       .  S
C3221      C3222   1.432       .  A
C3221      C3228   1.443       .  S
C3222      C3223   1.404       .  A
C3223      C3224   1.396       .  A
C3223      C3226   1.451       .  S
C3224      C3227   1.445       .  S
C3225      N3232   1.157       .  T
C3226      N3231   1.157       .  T
C3227      N3229   1.157       .  T
C3228      N3230   1.157       .  T
C3233      C3234   1.411       .  A
C3233      C3238   1.416       .  A
C3234      C3235   1.415       .  A
C3234      C3239   1.450       .  S
C3235      C3236   1.419       .  A
C3235      C3242   1.450       .  S
C3236      C3237   1.406       .  A
C3237      C3238   1.395       .  A
C3237      C3240   1.456       .  S
C3238      C3241   1.447       .  S
C3239      N3246   1.157       .  T
C3240      N3245   1.157       .  T
C3241      N3243   1.158       .  T
C3242      N3244   1.157       .  T
C3247      C3248   1.418       .  A
C3247      C3252   1.429       .  A
C3248      C3249   1.398       .  A
C3249      C3250   1.391       .  A
C3250      C3251   1.392       .  A
C3251      C3252   1.393       .  A
C3251      C3254   1.455       .  S
C3252      C3255   1.449       .  S
C3253      N3260   1.157       .  T
C3254      N3259   1.157       .  T
C3255      N3257   1.156       .  T
C3256      N3258   1.156       .  T
C3261      C3262   1.414       .  A
C3261      C3266   1.414       .  A
C3262      C3267   1.452   1_655  S
C3263      C3264   1.412       .  A
C3263      C3270   1.452   1_655  S
C3264      C3265   1.413       .  A
C3265      C3268   1.450       .  S
C3266      C3269   1.450       .  S
C3267      N3274   1.157       .  T
C3268      N3273   1.157       .  T
C3269      N3271   1.157       .  T
C3270      N3272   1.157       .  T
C3275      C3276   1.417   1_556  A
C3275      C3280   1.416   1_556  A
C3276      C3281   1.449   1_554  S
C3277      C3278   1.413       .  A
C3277      C3284   1.449       .  S
C3278      C3279   1.412       .  A
C3279      C3282   1.453       .  S
C3280      C3283   1.451   1_554  S
C3281      N3288   1.157       .  T
C3282      N3287   1.157   1_455  T
C3283      N3285   1.157   1_455  T
C3284      N3286   1.157       .  T
C3289      C3290   1.404       .  A
C3289      C3294   1.401   1_455  A
C3290      C3291   1.379       .  A
C3290      C3295   1.456       .  S
C3291      C3292   1.404       .  A
C3291      C3298   1.454       .  S
C3292      C3293   1.398   1_455  A
C3293      C3294   1.380       .  A
C3293      C3296   1.454       .  S
C3294      C3297   1.445       .  S
C3295      N3302   1.157       .  T
C3296      N3301   1.157       .  T
C3297      N3299   1.154       .  T
C3298      N3300   1.157       .  T
C3303      C3304   1.411       .  A
C3303      C3308   1.413       .  A
C3304      C3305   1.411       .  A
C3304      C3309   1.451       .  S
C3305      C3306   1.415       .  A
C3305      C3312   1.452       .  S
C3306      C3307   1.416       .  A
C3307      C3308   1.420       .  A
C3307      C3310   1.449       .  S
C3308      C3311   1.449       .  S
C3309      N3316   1.157       .  T
C3310      N3315   1.157       .  T
C3311      N3313   1.157       .  T
C3312      N3314   1.157       .  T
C3317      C3318   1.408       .  A
C3317      C3322   1.414       .  A
C3318      C3319   1.425       .  A
C3318      C3323   1.450       .  S
C3319      C3320   1.428       .  A
C3319      C3326   1.447       .  S
C3320      C3321   1.417       .  A
C3321      C3322   1.419       .  A
C3321      C3324   1.452       .  S
C3322      C3325   1.445       .  S
C3323      N3330   1.157       .  T
C3324      N3329   1.158   1_655  T
C3325      N3327   1.155       .  T
C3326      N3328   1.157       .  T
C3331      C3332   1.423       .  A
C3331      C3336   1.415       .  A
C3332      C3333   1.442       .  A
C3332      C3337   1.448       .  S
C3333      C3334   1.425       .  A
C3333      C3340   1.447       .  S
C3334      C3335   1.430       .  A
C3335      C3336   1.431       .  A
C3335      C3338   1.448       .  S
C3336      C3339   1.451       .  S
C3337      N3344   1.157       .  T
C3338      N3343   1.156   1_655  T
C3339      N3341   1.157       .  T
C3340      N3342   1.157       .  T
C3345      C3346   1.404       .  A
C3345      C3350   1.437       .  A
C3346      C3347   1.395       .  A
C3346      C3351   1.446       .  S
C3347      C3348   1.409       .  A
C3347      C3354   1.443       .  S
C3348      C3349   1.429       .  A
C3349      C3350   1.460       .  A
C3349      C3352   1.444       .  S
C3350      C3353   1.444       .  S
C3351      N3358   1.158       .  T
C3352      N3357   1.157       .  T
C3353      N3355   1.157       .  T
C3354      N3356   1.155       .  T
C3359      C3360   1.402       .  A
C3359      C3364   1.421       .  A
C3360      C3361   1.406       .  A
C3360      C3365   1.455       .  S
C3361      C3362   1.425       .  A
C3361      C3368   1.446       .  S
C3362      C3363   1.405       .  A
C3363      C3364   1.407       .  A
C3363      C3366   1.452       .  S
C3364      C3367   1.447       .  S
C3365      N3372   1.158       .  T
C3366      N3371   1.157       .  T
C3367      N3369   1.156       .  T
C3373      C3374   1.413       .  A
C3373      C3378   1.413       .  A
C3374      C3375   1.415       .  A
C3374      C3379   1.450       .  S
C3375      C3376   1.414       .  A
C3375      C3382   1.450       .  S
C3376      C3377   1.413       .  A
C3377      C3378   1.408       .  A
C3377      C3380   1.452       .  S
C3378      C3381   1.452       .  S
C3379      N3386   1.157       .  T
C3380      N3385   1.157       .  T
C3381      N3383   1.157       .  T
C3382      N3384   1.157       .  T
C3387      C3388   1.419       .  A
C3387      C3392   1.417       .  A
C3388      C3389   1.412       .  A
C3388      C3393   1.443       .  S
C3389      C3390   1.414       .  A
C3389      C3396   1.444       .  S
C3390      C3391   1.432       .  A
C3391      C3392   1.431       .  A
C3391      C3394   1.450       .  S
C3392      C3395   1.450       .  S
C3393      N3400   1.154   1_455  T
C3394      N3399   1.157       .  T
C3395      N3397   1.157       .  T
C3396      N3398   1.154       .  T
C3401      C3402   1.430       .  A
C3401      C3406   1.403       .  A
C3402      C3403   1.438       .  A
C3402      C3407   1.447       .  S
C3403      C3404   1.416       .  A
C3403      C3410   1.448       .  S
C3404      C3405   1.443       .  A
C3405      C3406   1.428       .  A
C3405      C3408   1.447       .  S
C3406      C3409   1.452       .  S
C3407      N3414   1.157       .  T
C3409      N3411   1.158       .  T
C3410      N3412   1.157       .  T
C3415      C3416   1.412       .  A
C3415      C3420   1.406       .  A
C3416      C3417   1.415       .  A
C3416      C3421   1.450       .  S
C3417      C3418   1.417       .  A
C3417      C3424   1.450       .  S
C3418      C3419   1.413       .  A
C3419      C3420   1.400       .  A
C3419      C3422   1.448       .  S
C3420      C3423   1.448       .  S
C3421      N3428   1.157       .  T
C3422      N3427   1.157       .  T
C3423      N3425   1.155       .  T
C3424      N3426   1.157       .  T
C3429      C3430   1.420       .  A
C3429      C3434   1.416       .  A
C3430      C3431   1.426       .  A
C3430      C3435   1.448       .  S
C3431      C3432   1.418       .  A
C3431      C3438   1.450       .  S
C3432      C3433   1.424       .  A
C3433      C3434   1.435       .  A
C3433      C3436   1.444       .  S
C3434      C3437   1.448       .  S
C3435      N3442   1.157       .  T
C3436      N3441   1.156       .  T
C3437      N3439   1.157       .  T
C3438      N3440   1.157       .  T
C3443      C3444   1.396   1_655  A
C3443      C3448   1.386   1_655  A
C3444      C3445   1.400       .  A
C3444      C3449   1.447   1_455  S
C3445      C3446   1.417       .  A
C3445      C3452   1.446       .  S
C3446      C3447   1.432       .  A
C3447      C3448   1.397       .  A
C3447      C3450   1.449       .  S
C3448      C3451   1.451       .  S
C3449      N3456   1.156       .  T
C3450      N3455   1.158       .  T
C3451      N3453   1.157       .  T
C3452      N3454   1.155       .  T
