geometry optimzed in LAMMPS
_audit_creation_date              2020-12-01 
_audit_creation_method            'lammps2cif' 
_symmetry_space_group_name_H-M    'P1' 
_symmetry_Int_Tables_number       1 
_symmetry_cell_setting            triclinic 
loop_ 
_symmetry_equiv_pos_as_xyz 
  x,y,z 
_cell_length_a                    46.05180076 
_cell_length_b                    46.12552593032357 
_cell_length_c                    37.888199557062435 
_cell_angle_alpha                 90.30527433203562 
_cell_angle_beta                  89.8977816861971 
_cell_angle_gamma                 120.4184510227927 
loop_ 
_atom_site_label 
_atom_site_type_symbol 
_atom_site_fract_x 
_atom_site_fract_y 
_atom_site_fract_z 
_atom_site_charge 
O1          O  0.39285695  0.88199963  0.20230858    -0.80100
C2          C  0.32434693  0.88555866  0.32366817     0.99300
O3          O  0.35547397  0.90387237  0.31778825    -0.69200
O4          O  0.38411211  0.86843020  0.30365550    -0.72800
Al5        Al  0.38379648  0.90462328  0.28051360     1.49000
C6          C  0.38847260  0.84658145  0.28848504     0.94500
O7          O  0.31329086  0.81086573  0.24143921    -0.79000
O8          O  0.31876925  0.89243875  0.20155642    -0.72600
Al9        Al  0.35336998  0.84844414  0.22391079     1.90100
O10         O  0.28231447  0.83457495  0.23922713    -0.71600
O11         O  0.33484242  0.92893620  0.25996826    -0.71500
O12         O  0.30361786  0.87034159  0.29898894    -0.77100
O13         O  0.38824886  0.94412818  0.26089363    -0.75300
O14         O  0.35000318  0.87791191  0.25171945    -1.11500
O15         O  0.41944878  0.91096161  0.24953331    -0.70700
C16         C  0.41948562  0.90293316  0.21772113     1.00100
C17         C  0.28493099  0.80861107  0.23853448     0.96400
Al18       Al  0.31292630  0.88120221  0.25024841     1.55600
O19         O  0.37912706  0.83805989  0.25685298    -0.75300
C20         C  0.36553060  0.95147873  0.25867284     1.00600
C21         C  0.32180219  0.87505815  0.17760521     0.95500
O22         O  0.32980212  0.85326468  0.18468927    -0.80600
O23         O  0.39117913  0.88365309  0.44884639    -0.80100
C24         C  0.32757102  0.88888866  0.07321392     0.99300
O25         O  0.35821303  0.90829826  0.06572306    -0.69200
O26         O  0.38781516  0.87406514  0.05051237    -0.72800
Al27       Al  0.38513687  0.90877333  0.02696170     1.49000
C28         C  0.39154088  0.85164869  0.03577405     0.94500
O29         O  0.31389310  0.81320852  0.49240653    -0.79000
O30         O  0.31606139  0.89296199  0.45143425    -0.72600
Al31       Al  0.35291497  0.85056188  0.47271378     1.90100
O32         O  0.28218809  0.83609076  0.49081827    -0.71600
O33         O  0.33390913  0.93080538  0.50933711    -0.71500
O34         O  0.30584284  0.87298156  0.04954413    -0.77100
O35         O  0.38750690  0.94707366  0.00671893    -0.75300
O36         O  0.35024293  0.88060503  0.50016600    -1.11500
O37         O  0.41947061  0.91496723  0.49416917    -0.70700
C38         C  0.41826891  0.90567424  0.46263322     1.00100
C39         C  0.28524236  0.81040590  0.49023566     0.96400
Al40       Al  0.31260058  0.88296345  0.50047551     1.55600
O41         O  0.38055030  0.84170723  0.00480391    -0.75300
C42         C  0.36427929  0.95375942  0.00627584     1.00600
C43         C  0.31841031  0.87500563  0.42759836     0.95500
O44         O  0.32732997  0.85386755  0.43459109    -0.80600
O45         O  0.50999493  0.12481540  0.05630688    -0.80100
C46         C  0.43907674  0.11880190  0.43322837     0.99300
O47         O  0.45214001  0.10108079  0.43980569    -0.69200
O48         O  0.51635277  0.13684838  0.45492285    -0.72800
Al49       Al  0.47905581  0.10083889  0.47789342     1.49000
C50         C  0.54256764  0.15905195  0.47013021     0.94500
O51         O  0.50139838  0.19475714  0.01526500    -0.79000
O52         O  0.42444662  0.11262145  0.05507452    -0.72600
Al53       Al  0.50404587  0.15768978  0.03365664     1.90100
O54         O  0.44626571  0.17000758  0.01684187    -0.71600
O55         O  0.40482271  0.07574590  0.99668677    -0.71500
O56         O  0.43299824  0.13396690  0.45739390    -0.77100
O57         O  0.44341924  0.06140633  0.49730019    -0.75300
O58         O  0.47142468  0.12755292  0.00576364    -1.11500
O59         O  0.50765901  0.09496240  0.01000371    -0.70700
C60         C  0.51529395  0.10338682  0.04180611     1.00100
C61         C  0.47488551  0.19637124  0.01772617     0.96400
Al62       Al  0.43061853  0.12352681  0.00627258     1.55600
O63         O  0.54116742  0.16830735  0.50132636    -0.75300
C64         C  0.41309164  0.05357251  0.99850313     1.00600
C65         C  0.44465282  0.13045474  0.07912324     0.95500
O66         O  0.47471729  0.15261231  0.07224882    -0.80600
O67         O  0.50932339  0.12253583  0.30546588    -0.80100
C68         C  0.43804525  0.11716131  0.18314212     0.99300
O69         O  0.45073872  0.09907443  0.18942485    -0.69200
O70         O  0.51489769  0.13721347  0.20358468    -0.72800
Al71       Al  0.47903905  0.10008370  0.22679574     1.49000
C72         C  0.54121801  0.15905951  0.21894681     0.94500
O73         O  0.50097392  0.19260860  0.26545302    -0.79000
O74         O  0.42417983  0.11061646  0.30530846    -0.72600
Al75       Al  0.50354153  0.15572474  0.28347394     1.90100
O76         O  0.44581088  0.16816322  0.26712420    -0.71600
O77         O  0.40502162  0.07335377  0.24716927    -0.71500
O78         O  0.43205044  0.13205024  0.20764298    -0.77100
O79         O  0.44460323  0.06017601  0.24671398    -0.75300
O80         O  0.47095075  0.12588697  0.25550803    -1.11500
O81         O  0.50943139  0.09547216  0.25775282    -0.70700
C82         C  0.51658289  0.10297567  0.28984634     1.00100
C83         C  0.47464330  0.19440000  0.26814526     0.96400
Al84       Al  0.43009292  0.12145376  0.25648945     1.55600
O85         O  0.54036830  0.16677951  0.25088968    -0.75300
C86         C  0.41409664  0.05168586  0.24881726     1.00600
C87         C  0.44441157  0.12877188  0.32916416     0.95500
O88         O  0.47449709  0.15063662  0.32216661    -0.80600
O89         O  0.61348989  0.12446658  0.08102150    -0.80100
C90         C  0.68166544  0.12372035  0.20354285     0.99300
O91         O  0.65076875  0.10448850  0.19710766    -0.69200
O92         O  0.62159120  0.13918740  0.18279068    -0.72800
Al93       Al  0.62259056  0.10330337  0.15952554     1.49000
C94         C  0.61653577  0.16042313  0.16757224     0.94500
O95         O  0.69128363  0.19735257  0.12131496    -0.79000
O96         O  0.68938251  0.11706984  0.08165947    -0.72600
Al97       Al  0.65220653  0.15901209  0.10317592     1.90100
O98         O  0.72379937  0.17529541  0.12002881    -0.71600
O99         O  0.67297482  0.08064407  0.13965562    -0.71500
O100        O  0.70248265  0.13950271  0.17925272    -0.77100
O101        O  0.61923446  0.06437550  0.13949459    -0.75300
O102        O  0.65635705  0.13041559  0.13116742    -1.11500
O103        O  0.58682581  0.09622783  0.12826869    -0.70700
C104        C  0.58685569  0.10354840  0.09628152     1.00100
C105        C  0.72011844  0.20063663  0.11918511     0.96400
Al106      Al  0.69411482  0.12839784  0.13041900     1.55600
O107        O  0.62537470  0.16851275  0.13580455    -0.75300
C108        C  0.64244079  0.05769839  0.13746159     1.00600
C109        C  0.68589913  0.13378776  0.05752366     0.95500
O110        O  0.67687695  0.15493190  0.06433873    -0.80600
O111        O  0.61693756  0.12821505  0.33123745    -0.80100
C112        C  0.68066708  0.11911469  0.45317057     0.99300
O113        O  0.64988967  0.10015997  0.44579406    -0.69200
O114        O  0.62153011  0.13591551  0.43294619    -0.72800
Al115      Al  0.62295468  0.10096076  0.40784210     1.49000
C116        C  0.61846117  0.15906356  0.41935698     0.94500
O117        O  0.69607047  0.19667610  0.37493180    -0.79000
O118        O  0.69045968  0.11610174  0.33081450    -0.72600
Al119      Al  0.65602476  0.16016087  0.35518120     1.90100
O120        O  0.72640861  0.17242219  0.37117565    -0.71600
O121        O  0.67210277  0.07674625  0.38724742    -0.71500
O122        O  0.70232821  0.13458156  0.42940345    -0.77100
O123        O  0.61896689  0.06215648  0.38603196    -0.75300
O124        O  0.65791247  0.12899126  0.38114628    -1.11500
O125        O  0.58872233  0.09605313  0.37582302    -0.70700
C126        C  0.58990512  0.10581872  0.34462491     1.00100
C127        C  0.72428777  0.19870623  0.37118127     0.96400
Al128      Al  0.69479782  0.12531757  0.38006624     1.55600
O129        O  0.62960916  0.16957798  0.38864568    -0.75300
C130        C  0.64139396  0.05440545  0.38386132     1.00600
C131        C  0.68839169  0.13472429  0.30785040     0.95500
O132        O  0.68044674  0.15642381  0.31600708    -0.80600
O133        O  0.49650629  0.88139578  0.17499190    -0.80100
C134        C  0.57085212  0.89526079  0.05260467     0.99300
O135        O  0.55781563  0.91289891  0.06011718    -0.69200
O136        O  0.49356503  0.87540855  0.07307614    -0.72800
Al137      Al  0.52967630  0.91066769  0.09841985     1.49000
C138        C  0.46730818  0.85180001  0.08656709     0.94500
O139        O  0.50946119  0.81597395  0.12825525    -0.79000
O140        O  0.58314721  0.89678462  0.17507220    -0.72600
Al141      Al  0.50459553  0.85082317  0.14986315     1.90100
O142        O  0.56456106  0.84220218  0.13245792    -0.71600
O143        O  0.60371765  0.93683865  0.11934965    -0.71500
O144        O  0.57796174  0.88061051  0.07616730    -0.77100
O145        O  0.56404896  0.94963395  0.12035942    -0.75300
O146        O  0.53754983  0.88327133  0.12447596    -1.11500
O147        O  0.49980546  0.91388921  0.13114773    -0.70700
C148        C  0.49135486  0.90350108  0.16225473     1.00100
C149        C  0.53651495  0.81533296  0.13033229     0.96400
Al150      Al  0.57889377  0.88866560  0.12547950     1.55600
O151        O  0.46817227  0.84097613  0.11695496    -0.75300
C152        C  0.59451076  0.95820251  0.12268791     1.00600
C153        C  0.56250133  0.87691127  0.19760394     0.95500
O154        O  0.53303688  0.85442703  0.18884398    -0.80600
O155        O  0.49640662  0.88464426  0.42466511    -0.80100
C156        C  0.56688192  0.88683138  0.30236034     0.99300
O157        O  0.55443372  0.90515184  0.30869370    -0.69200
O158        O  0.49013068  0.86749910  0.32307956    -0.72800
Al159      Al  0.52641137  0.90496490  0.34592380     1.49000
C160        C  0.46371111  0.84636395  0.33876177     0.94500
O161        O  0.50341434  0.81241351  0.38675723    -0.79000
O162        O  0.58127292  0.89510807  0.42431182    -0.72600
Al163      Al  0.50164088  0.85048212  0.40352851     1.90100
O164        O  0.55850051  0.83610840  0.38693478    -0.71600
O165        O  0.60049031  0.93169634  0.36650010    -0.71500
O166        O  0.57256521  0.87188532  0.32686868    -0.77100
O167        O  0.56122415  0.94526028  0.36566377    -0.75300
O168        O  0.53420852  0.87933697  0.37498262    -1.11500
O169        O  0.49644305  0.91064710  0.37642712    -0.70700
C170        C  0.48967136  0.90428447  0.40864908     1.00100
C171        C  0.52947032  0.81003271  0.38889316     0.96400
Al172      Al  0.57484084  0.88325164  0.37583056     1.55600
O173        O  0.46471979  0.83901920  0.37075341    -0.75300
C174        C  0.59168901  0.95366546  0.36838734     1.00600
C175        C  0.56117833  0.87858837  0.44875364     0.95500
O176        O  0.53092538  0.85657185  0.44241909    -0.80600
O177        O  0.61329143  0.49078652  0.22613920    -0.80100
C178        C  0.67673276  0.56458036  0.10364094     0.99300
O179        O  0.64579857  0.55103470  0.11079266    -0.69200
O180        O  0.61946957  0.48693039  0.12419761    -0.72800
Al181      Al  0.61928936  0.52273934  0.14872587     1.49000
C182        C  0.61692853  0.46110484  0.13831030     0.94500
O183        O  0.69255892  0.50224091  0.18294239    -0.79000
O184        O  0.68692952  0.57718570  0.22594506    -0.72600
Al185      Al  0.65265294  0.49833241  0.20257090     1.90100
O186        O  0.72275361  0.55733182  0.18477027    -0.71600
O187        O  0.66728414  0.59676587  0.17001409    -0.71500
O188        O  0.69832923  0.57097630  0.12744674    -0.77100
O189        O  0.61423942  0.55703087  0.17007899    -0.75300
O190        O  0.65427943  0.53094190  0.17592153    -1.11500
O191        O  0.58506979  0.49254325  0.18043710    -0.70700
C192        C  0.58611735  0.48477120  0.21200764     1.00100
C193        C  0.72078365  0.52897519  0.18453179     0.96400
Al194      Al  0.69080410  0.57210277  0.17677527     1.55600
O195        O  0.62685697  0.46201529  0.16958868    -0.75300
C196        C  0.63640919  0.58754944  0.17263003     1.00600
C197        C  0.68508572  0.55688241  0.24919811     0.95500
O198        O  0.67705515  0.52706928  0.24149722    -0.80600
O199        O  0.61461908  0.49499704  0.47661239    -0.80100
C200        C  0.67941241  0.56415523  0.35324730     0.99300
O201        O  0.64838707  0.55127773  0.35966960    -0.69200
O202        O  0.62053850  0.48763989  0.37495892    -0.72800
Al203      Al  0.62097234  0.52438767  0.39781029     1.49000
C204        C  0.61569755  0.46156257  0.39049512     0.94500
O205        O  0.69291137  0.50363467  0.43410649    -0.79000
O206        O  0.68684373  0.57988625  0.47523375    -0.72600
Al207      Al  0.65329295  0.50077409  0.45349738     1.90100
O208        O  0.72353458  0.55874645  0.43676833    -0.71600
O209        O  0.66959594  0.59885180  0.41637176    -0.71500
O210        O  0.70067415  0.57114469  0.37760609    -0.77100
O211        O  0.61641788  0.55957759  0.41692936    -0.75300
O212        O  0.65548723  0.53287129  0.42572109    -1.11500
O213        O  0.58637019  0.49548576  0.43019291    -0.70700
C214        C  0.58748333  0.48857744  0.46213662     1.00100
C215        C  0.72128057  0.53024945  0.43635177     0.96400
Al216      Al  0.69221542  0.57381848  0.42634075     1.55600
O217        O  0.62606998  0.46322579  0.42176874    -0.75300
C218        C  0.63878046  0.59007410  0.41743516     1.00600
C219        C  0.68484008  0.55994661  0.49911366     0.95500
O220        O  0.67820987  0.53043804  0.49182463    -0.80600
O221        O  0.50941418  0.38954460  0.50229437    -0.80100
C222        C  0.43951510  0.32421084  0.12568937     0.99300
O223        O  0.45417114  0.35539899  0.12005549    -0.69200
O224        O  0.51746544  0.37975594  0.10404311    -0.72800
Al225      Al  0.48208187  0.38256691  0.08230194     1.49000
C226        C  0.54342465  0.38502915  0.08765551     0.94500
O227        O  0.50050998  0.31081871  0.04253876    -0.79000
O228        O  0.42469482  0.31785599  0.50332305    -0.72600
Al229      Al  0.50369991  0.35048776  0.02420371     1.90100
O230        O  0.44512171  0.28053242  0.04150380    -0.71600
O231        O  0.40719732  0.33742654  0.06136362    -0.71500
O232        O  0.43197729  0.30340538  0.10073860    -0.77100
O233        O  0.44850475  0.38979925  0.06409729    -0.75300
O234        O  0.47207773  0.34845643  0.05297945    -1.11500
O235        O  0.51216230  0.41734119  0.05065102    -0.70700
C236        C  0.51726066  0.41660849  0.01800663     1.00100
C237        C  0.47370553  0.28265858  0.04048631     0.96400
Al238      Al  0.43058887  0.31265748  0.05204899     1.55600
O239        O  0.54169299  0.37676068  0.05551830    -0.75300
C240        C  0.41775313  0.36872045  0.06091715     1.00600
C241        C  0.44409937  0.31878728  0.47930426     0.95500
O242        O  0.47382567  0.32598093  0.48607495    -0.80600
O243        O  0.50817777  0.38668148  0.25284368    -0.80100
C244        C  0.43598773  0.32146110  0.37506013     0.99300
O245        O  0.44672439  0.35184234  0.36735960    -0.69200
O246        O  0.51159616  0.38309495  0.35413055    -0.72800
Al247      Al  0.47398525  0.37918649  0.32931186     1.49000
C248        C  0.53801696  0.38621942  0.34051060     0.94500
O249        O  0.50023422  0.30924505  0.29541946    -0.79000
O250        O  0.42247100  0.31027408  0.25336298    -0.72600
Al251      Al  0.50206056  0.34819424  0.27628318     1.90100
O252        O  0.44545567  0.27689266  0.29276803    -0.71600
O253        O  0.40101018  0.32619121  0.31095307    -0.71500
O254        O  0.43142469  0.29986257  0.35166775    -0.77100
O255        O  0.43755310  0.38005748  0.30752570    -0.75300
O256        O  0.46846149  0.34467556  0.30281971    -1.11500
O257        O  0.50283007  0.41402413  0.29743335    -0.70700
C258        C  0.51258946  0.41340933  0.26655872     1.00100
C259        C  0.47444529  0.28048433  0.29251148     0.96400
Al260      Al  0.42849794  0.30644248  0.30243435     1.55600
O261        O  0.53760321  0.37511409  0.30977913    -0.75300
C262        C  0.40765282  0.35600505  0.30691401     1.00600
C263        C  0.44352904  0.31432488  0.22967245     0.95500
O264        O  0.47372643  0.32335451  0.23712491    -0.80600
O265        O  0.52926056  0.69555112  0.22414881    -0.80100
C266        C  0.57325676  0.67799690  0.09664981     0.99300
O267        O  0.57956993  0.70177098  0.11768475    -0.69200
O268        O  0.56440023  0.73241187  0.16663480    -0.72800
Al269      Al  0.57755291  0.69829033  0.16786010     1.49000
C270        C  0.53737555  0.73000376  0.15506750     0.94500
O271        O  0.46735166  0.63505211  0.15188994    -0.79000
O272        O  0.49045045  0.59584940  0.17692296    -0.72600
Al273      Al  0.50221698  0.66633651  0.18538114     1.90100
O274        O  0.49976415  0.63058293  0.11319137    -0.71600
O275        O  0.55750808  0.62001735  0.17419879    -0.71500
O276        O  0.56158283  0.64829942  0.10808393    -0.77100
O277        O  0.59994907  0.67171060  0.16845406    -0.75300
O278        O  0.53605163  0.66341198  0.16653012    -1.11500
O279        O  0.57751652  0.69682310  0.21807690    -0.70700
C280        C  0.55552575  0.69746634  0.23754814     1.00100
C281        C  0.47104383  0.62221012  0.12374197     0.96400
Al282      Al  0.52799742  0.62623753  0.14493394     1.55600
O283        O  0.51014374  0.70229500  0.15549866    -0.75300
C284        C  0.58872148  0.64073449  0.17449439     1.00600
C285        C  0.47899154  0.60147657  0.20524858     0.95500
O286        O  0.49093449  0.63091766  0.21666751    -0.80600
O287        O  0.48488890  0.61181030  0.36947159    -0.80100
C288        C  0.56402195  0.67579002  0.49063102     0.99300
O289        O  0.54861861  0.64494650  0.48295919    -0.69200
O290        O  0.48404518  0.61501309  0.46992747    -0.72800
Al291      Al  0.52134003  0.61851925  0.44467808     1.49000
C292        C  0.45819977  0.61422144  0.45794570     0.94500
O293        O  0.49834054  0.69228107  0.41307085    -0.79000
O294        O  0.57204079  0.68796725  0.36619957    -0.72600
Al295      Al  0.49363062  0.65158102  0.39355883     1.90100
O296        O  0.55340346  0.72227158  0.41083648    -0.71600
O297        O  0.59503542  0.66903553  0.42150048    -0.71500
O298        O  0.57013440  0.69786436  0.46735227    -0.77100
O299        O  0.55693340  0.61573311  0.42360208    -0.75300
O300        O  0.52780865  0.65370691  0.41853570    -1.11500
O301        O  0.49313417  0.58468196  0.41192441    -0.70700
C302        C  0.48320794  0.58559652  0.38134479     1.00100
C303        C  0.52516163  0.72049445  0.41085925     0.96400
Al304      Al  0.56887659  0.69091739  0.41681217     1.55600
O305        O  0.45870420  0.62631060  0.42796294    -0.75300
C306        C  0.58708226  0.63858483  0.42080353     1.00600
C307        C  0.55015097  0.68535521  0.34413235     0.95500
O308        O  0.52026831  0.67526083  0.35356488    -0.80600
O309        O  0.38070605  0.51210031  0.10104831    -0.80100
C310        C  0.32968428  0.44118122  0.47558245     0.99300
O311        O  0.36000115  0.45351325  0.48555596    -0.69200
O312        O  0.37917702  0.51661049  0.49764740    -0.72800
Al313      Al  0.38297783  0.48433274  0.02441486     1.49000
C314        C  0.38140404  0.54256761  0.01137693     0.94500
O315        O  0.30436176  0.49735652  0.05180558    -0.79000
O316        O  0.31417680  0.42521502  0.09653712    -0.72600
Al317      Al  0.34308159  0.50356426  0.07480451     1.90100
O318        O  0.27669144  0.44225958  0.05458681    -0.71600
O319        O  0.33878842  0.41009799  0.04102546    -0.71500
O320        O  0.30643459  0.43381376  0.99774843    -0.77100
O321        O  0.39028293  0.45256596  0.04892275    -0.75300
O322        O  0.34574925  0.47305973  0.04873752    -1.11500
O323        O  0.41400023  0.51993841  0.05673683    -0.70700
C324        C  0.40865490  0.52889564  0.08656983     1.00100
C325        C  0.27712698  0.46991129  0.05373598     0.96400
Al326      Al  0.31153305  0.43101035  0.04732029     1.55600
O327        O  0.36963865  0.54143558  0.04212761    -0.75300
C328        C  0.36961030  0.42126791  0.04790385     1.00600
C329        C  0.31317263  0.44402375  0.12022259     0.95500
O330        O  0.31761637  0.47281015  0.11281253    -0.80600
O331        O  0.39071229  0.50262345  0.34220346    -0.80100
C332        C  0.31919821  0.42943453  0.22405368     0.99300
O333        O  0.34889642  0.43623062  0.23084036    -0.69200
O334        O  0.38104191  0.50075764  0.23957252    -0.72800
Al335      Al  0.37911333  0.46602271  0.26656275     1.49000
C336        C  0.39274890  0.52938758  0.25296506     0.94500
O337        O  0.31516628  0.49923905  0.29874175    -0.79000
O338        O  0.31455862  0.42208603  0.34705403    -0.72600
Al339      Al  0.35348373  0.49937578  0.31872162     1.90100
O340        O  0.28065366  0.44518842  0.30692928    -0.71600
O341        O  0.32635143  0.39568067  0.29010023    -0.71500
O342        O  0.29907972  0.42615177  0.24857331    -0.77100
O343        O  0.38065929  0.43175121  0.29063639    -0.75300
O344        O  0.34684125  0.46362770  0.29428049    -1.11500
O345        O  0.41652440  0.49721786  0.29612668    -0.70700
C346        C  0.41715993  0.50788693  0.32708346     1.00100
C347        C  0.28569950  0.47468846  0.30374724     0.96400
Al348      Al  0.30798767  0.42510510  0.29772674     1.55600
O349        O  0.38344701  0.53275909  0.28361813    -0.75300
C350        C  0.35645943  0.40224189  0.29315996     1.00600
C351        C  0.32014902  0.44484565  0.36937511     0.95500
O352        O  0.32795140  0.47416821  0.35955545    -0.80600
O353        O  0.12467959  0.51123597  0.03283175    -0.80100
C354        C  0.11471068  0.43915603  0.15535273     0.99300
O355        O  0.09678415  0.45204131  0.14872634    -0.69200
O356        O  0.13441657  0.51585709  0.13456862    -0.72800
Al357      Al  0.09802318  0.47974816  0.11057035     1.49000
C358        C  0.15737609  0.54179087  0.11997823     0.94500
O359        O  0.19114042  0.49883918  0.07663810    -0.79000
O360        O  0.10868482  0.42470112  0.03286429    -0.72600
Al361      Al  0.15591791  0.50349652  0.05656105     1.90100
O362        O  0.16455851  0.44375229  0.07272730    -0.71600
O363        O  0.07078658  0.40549946  0.09064619    -0.71500
O364        O  0.12863717  0.43173886  0.13104456    -0.77100
O365        O  0.05824095  0.44532788  0.09004093    -0.75300
O366        O  0.12427354  0.47118117  0.08316687    -1.11500
O367        O  0.09412517  0.50944679  0.07826614    -0.70700
C368        C  0.10351648  0.51729103  0.04673899     1.00100
C369        C  0.19148735  0.47175782  0.07358047     0.96400
Al370      Al  0.11861745  0.42983156  0.08212747     1.55600
O371        O  0.16695771  0.54039063  0.08904883    -0.75300
C372        C  0.04945228  0.41481863  0.08822930     1.00600
C373        C  0.12827601  0.44484120  0.00978488     0.95500
O374        O  0.15099611  0.47438410  0.01780972    -0.80600
O375        O  0.12733114  0.51291566  0.28255047    -0.80100
C376        C  0.12108067  0.44170989  0.40529701     0.99300
O377        O  0.10381721  0.45523333  0.39867400    -0.69200
O378        O  0.14150616  0.51926884  0.38433885    -0.72800
Al379      Al  0.10459142  0.48290155  0.36109958     1.49000
C380        C  0.16302347  0.54556056  0.36890512     0.94500
O381        O  0.19803721  0.50491317  0.32311785    -0.79000
O382        O  0.11545694  0.42808997  0.28328345    -0.72600
Al383      Al  0.16069515  0.50728950  0.30489166     1.90100
O384        O  0.17337743  0.44980388  0.32215576    -0.71600
O385        O  0.07795524  0.40876834  0.34076363    -0.71500
O386        O  0.13642938  0.43583082  0.38118853    -0.77100
O387        O  0.06461949  0.44811502  0.34116049    -0.75300
O388        O  0.13075441  0.47485308  0.33287021    -1.11500
O389        O  0.09943192  0.51234385  0.32976012    -0.70700
C390        C  0.10673530  0.51907150  0.29767816     1.00100
C391        C  0.19983575  0.47851143  0.32137597     0.96400
Al392      Al  0.12631968  0.43404069  0.33206604     1.55600
O393        O  0.17148169  0.54433473  0.33734818    -0.75300
C394        C  0.05611587  0.41766553  0.33907616     1.00600
C395        C  0.13279744  0.44817184  0.25917835     0.95500
O396        O  0.15547376  0.47802230  0.26609004    -0.80600
O397        O  0.12478278  0.61605637  0.25735931    -0.80100
C398        C  0.11758750  0.67952525  0.13449587     0.99300
O399        O  0.09838073  0.64885860  0.14179672    -0.69200
O400        O  0.13390424  0.62028434  0.15555341    -0.72800
Al401      Al  0.09879338  0.62199814  0.17994902     1.49000
C402        C  0.15676102  0.61705937  0.16987607     0.94500
O403        O  0.19426082  0.69355851  0.21377369    -0.79000
O404        O  0.11423096  0.69023835  0.25646113    -0.72600
Al405      Al  0.15738337  0.65454409  0.23364648     1.90100
O406        O  0.17112460  0.72496240  0.21655498    -0.71600
O407        O  0.07583074  0.67221374  0.19938557    -0.71500
O408        O  0.13357156  0.70113479  0.15825639    -0.77100
O409        O  0.06017971  0.61882557  0.20122596    -0.75300
O410        O  0.12686062  0.65684405  0.20687732    -1.11500
O411        O  0.09356841  0.58770663  0.21200291    -0.70700
C412        C  0.10319875  0.58889039  0.24333657     1.00100
C413        C  0.19697015  0.72205741  0.21637205     0.96400
Al414      Al  0.12398725  0.69410089  0.20738269     1.55600
O415        O  0.16655086  0.62769686  0.20092147    -0.75300
C416        C  0.05313353  0.64178803  0.20280995     1.00600
C417        C  0.13229039  0.68787892  0.27997921     0.95500
O418        O  0.15392355  0.67965338  0.27243551    -0.80600
O419        O  0.12593975  0.61608008  0.00593019    -0.80100
C420        C  0.11986378  0.68176877  0.38423696     0.99300
O421        O  0.10129723  0.65083178  0.39068613    -0.69200
O422        O  0.13739872  0.62289281  0.40436009    -0.72800
Al423      Al  0.10135508  0.62334358  0.42824444     1.49000
C424        C  0.16014696  0.61967758  0.41895740     0.94500
O425        O  0.19558227  0.69511088  0.46483562    -0.79000
O426        O  0.11399367  0.68926759  0.00637299    -0.72600
Al427      Al  0.15867608  0.65532748  0.48341164     1.90100
O428        O  0.17162338  0.72578003  0.46779800    -0.71600
O429        O  0.07661763  0.67206398  0.44864404    -0.71500
O430        O  0.13508744  0.70296059  0.40858332    -0.77100
O431        O  0.06188797  0.61889112  0.44875036    -0.75300
O432        O  0.12840391  0.65772459  0.45624789    -1.11500
O433        O  0.09586561  0.58850781  0.45965488    -0.70700
C434        C  0.10461487  0.58917215  0.49126197     1.00100
C435        C  0.19776108  0.72334813  0.46791308     0.96400
Al436      Al  0.12472047  0.69452946  0.45751892     1.55600
O437        O  0.16912268  0.62963309  0.45034513    -0.75300
C438        C  0.05423698  0.64139189  0.45096798     1.00600
C439        C  0.13169111  0.68659064  0.03007537     0.95500
O440        O  0.15394513  0.67919743  0.02263628    -0.80600
O441        O  0.88302488  0.49835509  0.16001297    -0.80100
C442        C  0.88750395  0.56776955  0.28387693     0.99300
O443        O  0.90587582  0.55542821  0.27708742    -0.69200
O444        O  0.86957378  0.49137080  0.26189477    -0.72800
Al445      Al  0.90589359  0.52828444  0.23889117     1.49000
C446        C  0.84811902  0.46497937  0.24633302     0.94500
O447        O  0.81200617  0.50477103  0.20216836    -0.79000
O448        O  0.89351085  0.58241985  0.16195057    -0.72600
Al449      Al  0.84942336  0.50311047  0.18305018     1.90100
O450        O  0.83576380  0.55980213  0.20112860    -0.71600
O451        O  0.93114886  0.60225462  0.21944515    -0.71500
O452        O  0.87256234  0.57393466  0.25975523    -0.77100
O453        O  0.94534233  0.56354472  0.21918803    -0.75300
O454        O  0.87921913  0.53577325  0.21107493    -1.11500
O455        O  0.91165876  0.49944039  0.20672976    -0.70700
C456        C  0.90400511  0.49257185  0.17465143     1.00100
C457        C  0.80966797  0.53085715  0.20067050     0.96400
Al458      Al  0.88286922  0.57626081  0.21079831     1.55600
O459        O  0.83948916  0.46610659  0.21487642    -0.75300
C460        C  0.95326632  0.59379025  0.21707003     1.00600
C461        C  0.87579058  0.56218717  0.13791048     0.95500
O462        O  0.85365590  0.53219139  0.14479663    -0.80600
O463        O  0.88099808  0.49649384  0.41100566    -0.80100
C464        C  0.88959153  0.56918487  0.03375433     0.99300
O465        O  0.90773731  0.55663941  0.02671567    -0.69200
O466        O  0.86974755  0.49240217  0.01316505    -0.72800
Al467      Al  0.90606094  0.52820779  0.48893201     1.49000
C468        C  0.84705297  0.46607191  0.49856631     0.94500
O469        O  0.81198530  0.50572321  0.45387393    -0.79000
O470        O  0.89315292  0.58169889  0.41158133    -0.72600
Al471      Al  0.84847273  0.50282102  0.43435599     1.90100
O472        O  0.83646342  0.56075481  0.45198480    -0.71600
O473        O  0.93221592  0.60191145  0.46812137    -0.71500
O474        O  0.87437224  0.57517949  0.00980561    -0.77100
O475        O  0.94545556  0.56249146  0.46786172    -0.75300
O476        O  0.87924341  0.53576236  0.46140928    -1.11500
O477        O  0.91026693  0.49802487  0.45731809    -0.70700
C478        C  0.90195380  0.49056296  0.42546289     1.00100
C479        C  0.81009270  0.53200998  0.45219642     0.96400
Al480      Al  0.88364352  0.57654597  0.46064745     1.55600
O481        O  0.83822335  0.46658921  0.46707830    -0.75300
C482        C  0.95390975  0.59287987  0.46541241     1.00600
C483        C  0.87472119  0.56117376  0.38808891     0.95500
O484        O  0.85266094  0.53131831  0.39558908    -0.80600
O485        O  0.88302797  0.39449175  0.13508657    -0.80100
C486        C  0.88400455  0.32713793  0.01128010     0.99300
O487        O  0.90266160  0.35800726  0.01804012    -0.69200
O488        O  0.86683334  0.38595279  0.03345898    -0.72800
Al489      Al  0.90334036  0.38570830  0.05596000     1.49000
C490        C  0.84573730  0.39098771  0.04933863     0.94500
O491        O  0.80981941  0.31649307  0.09552404    -0.79000
O492        O  0.89085865  0.31892747  0.13279657    -0.72600
Al493      Al  0.84828281  0.35569890  0.11319246     1.90100
O494        O  0.83233960  0.28437690  0.09499489    -0.71600
O495        O  0.92690684  0.33604967  0.07454017    -0.71500
O496        O  0.86799127  0.30616048  0.03533124    -0.77100
O497        O  0.94261448  0.38959950  0.07543818    -0.75300
O498        O  0.87670611  0.35182138  0.08431826    -1.11500
O499        O  0.91012556  0.42125747  0.08740596    -0.70700
C500        C  0.90348067  0.42115278  0.11965512     1.00100
C501        C  0.80683181  0.28780312  0.09690068     0.96400
Al502      Al  0.87917820  0.31437798  0.08422827     1.55600
O503        O  0.83809508  0.38226406  0.08121453    -0.75300
C504        C  0.94960653  0.36662260  0.07690727     1.00600
C505        C  0.87444688  0.32238912  0.15745713     0.95500
O506        O  0.85310649  0.33128001  0.15143619    -0.80600
O507        O  0.88214248  0.39276837  0.38376507    -0.80100
C508        C  0.89013748  0.32847978  0.26132274     0.99300
O509        O  0.90895664  0.35931182  0.26843036    -0.69200
O510        O  0.87264400  0.38704427  0.28202610    -0.72800
Al511      Al  0.90823416  0.38641038  0.30641249     1.49000
C512        C  0.84971504  0.39025048  0.29628068     0.94500
O513        O  0.81310292  0.31364861  0.34083589    -0.79000
O514        O  0.89431726  0.31967554  0.38364910    -0.72600
Al515      Al  0.84982942  0.35368052  0.36023573     1.90100
O516        O  0.83748252  0.28341946  0.34397343    -0.71600
O517        O  0.93285116  0.33772567  0.32624667    -0.71500
O518        O  0.87480520  0.30706779  0.28525747    -0.77100
O519        O  0.94745385  0.39084887  0.32738470    -0.75300
O520        O  0.88071602  0.35169912  0.33358089    -1.11500
O521        O  0.91307679  0.42087299  0.33838320    -0.70700
C522        C  0.90365563  0.41985451  0.36980009     1.00100
C523        C  0.81113780  0.28550685  0.34435688     0.96400
Al524      Al  0.88452570  0.31498325  0.33442678     1.55600
O525        O  0.83997099  0.37978369  0.32731626    -0.75300
C526        C  0.95522451  0.36842555  0.32885223     1.00600
C527        C  0.87561292  0.32157069  0.40687340     0.95500
O528        O  0.85388225  0.32949846  0.39905784    -0.80600
C529        C  0.88077499  0.31697977  0.47505109    -0.11500
C530        C  0.87913380  0.31589040  0.44332125    -0.13100
C531        C  0.88506659  0.31885865  0.22483246    -0.11500
C532        C  0.88056644  0.31749142  0.19340938    -0.13100
C533        C  0.83444874  0.41135225  0.03204701    -0.11500
C534        C  0.83492503  0.43457392  0.01673928    -0.13100
C535        C  0.91352894  0.47179360  0.40611158    -0.11500
C536        C  0.91427981  0.45018495  0.38909405    -0.13100
C537        C  0.88282442  0.57299895  0.32021176    -0.11500
C538        C  0.87933076  0.57089441  0.35175965    -0.13100
C539        C  0.88131783  0.57237385  0.10168349    -0.11500
C540        C  0.88523683  0.57461017  0.07016537    -0.13100
C541        C  0.83751571  0.43309807  0.26335175    -0.11500
C542        C  0.83813022  0.41018564  0.27828738    -0.13100
C543        C  0.91588820  0.47411235  0.15529603    -0.11500
C544        C  0.91577289  0.45203379  0.13836234    -0.13100
C545        C  0.01928051  0.63127103  0.45580104    -0.11500
C546        C  0.98910767  0.61694189  0.46008615    -0.13100
C547        C  0.98833925  0.61828337  0.21224921    -0.11500
C548        C  0.01847121  0.63244883  0.20797279    -0.13100
C549        C  0.12441649  0.69180066  0.34798725    -0.11500
C550        C  0.12776867  0.69317275  0.31639463    -0.13100
C551        C  0.12211268  0.68885579  0.09802977    -0.11500
C552        C  0.12608759  0.69065180  0.06651799    -0.13100
C553        C  0.02071125  0.39337139  0.33548436    -0.11500
C554        C  0.99035382  0.37874765  0.33265028    -0.13100
C555        C  0.09442310  0.53732027  0.27883843    -0.11500
C556        C  0.09297679  0.55865656  0.26230844    -0.13100
C557        C  0.17241405  0.60023764  0.40092649    -0.11500
C558        C  0.17355953  0.57748605  0.38603684    -0.13100
C559        C  0.98424782  0.37617613  0.08072441    -0.11500
C560        C  0.01437908  0.39078335  0.08403488    -0.13100
C561        C  0.09322159  0.55863435  0.01012205    -0.11500
C562        C  0.09296665  0.53664901  0.02714800    -0.13100
C563        C  0.16825789  0.59692396  0.15202038    -0.11500
C564        C  0.16869853  0.57376918  0.13725442    -0.13100
C565        C  0.12481457  0.43524995  0.47330328    -0.11500
C566        C  0.12358779  0.43449513  0.44152783    -0.13100
C567        C  0.12048338  0.43497944  0.19163168    -0.11500
C568        C  0.12597323  0.43792746  0.22290766    -0.13100
C569        C  0.25748391  0.47995655  0.30892212    -0.11500
C570        C  0.23209337  0.48078799  0.31563466    -0.13100
C571        C  0.22237226  0.47231585  0.06723673    -0.11500
C572        C  0.24683735  0.47069525  0.05938172    -0.13100
C573        C  0.32217437  0.43705937  0.43829329    -0.11500
C574        C  0.31905012  0.43821639  0.40669327    -0.13100
C575        C  0.30851222  0.43334565  0.15651983    -0.11500
C576        C  0.30986169  0.42824885  0.18758461    -0.13100
C577        C  0.42692804  0.59590828  0.47758666    -0.11500
C578        C  0.40292673  0.57419647  0.49368246    -0.13100
C579        C  0.46753046  0.55551965  0.36049221    -0.11500
C580        C  0.44809815  0.53099613  0.34391904    -0.13100
C581        C  0.55918417  0.69799462  0.27557685    -0.11500
C582        C  0.55826120  0.69382426  0.30727200    -0.13100
C583        C  0.57378272  0.68443638  0.02717924    -0.11500
C584        C  0.57674322  0.68401022  0.05897205    -0.13100
C585        C  0.44862361  0.57566406  0.22199836    -0.11500
C586        C  0.42191682  0.55658090  0.23598375    -0.13100
C587        C  0.44484436  0.59104578  0.10991393    -0.11500
C588        C  0.42994996  0.56238510  0.09950700    -0.13100
C589        C  0.38109500  0.36322355  0.30238384    -0.11500
C590        C  0.36465184  0.37656070  0.29845088    -0.13100
C591        C  0.38164564  0.39811409  0.05326887    -0.11500
C592        C  0.39517112  0.38160808  0.05697034    -0.13100
C593        C  0.43082317  0.31275465  0.41164172    -0.11500
C594        C  0.43327998  0.31266014  0.44325614    -0.13100
C595        C  0.43418205  0.31035799  0.19313428    -0.11500
C596        C  0.43306366  0.31317593  0.16164162    -0.13100
C597        C  0.77766647  0.52929440  0.44750558    -0.11500
C598        C  0.75145229  0.52849600  0.44136893    -0.13100
C599        C  0.62807463  0.61450396  0.41804893    -0.11500
C600        C  0.61234228  0.62899959  0.41836773    -0.13100
C601        C  0.53574611  0.44716570  0.49892413    -0.11500
C602        C  0.55719311  0.46938479  0.48159217    -0.13100
C603        C  0.59369339  0.42944795  0.37375215    -0.11500
C604        C  0.56964625  0.40646354  0.35890373    -0.13100
C605        C  0.75109835  0.52737270  0.18918993    -0.11500
C606        C  0.77716331  0.52789104  0.19548083    -0.13100
C607        C  0.62559229  0.61179827  0.17711074    -0.11500
C608        C  0.61130079  0.62777986  0.17816962    -0.13100
C609        C  0.53270628  0.44393420  0.24780248    -0.11500
C610        C  0.55556872  0.46570065  0.23130019    -0.13100
C611        C  0.69069932  0.56681258  0.28551801    -0.11500
C612        C  0.68950345  0.56915072  0.31704953    -0.13100
C613        C  0.68865972  0.56968275  0.03560849    -0.11500
C614        C  0.68647169  0.57093589  0.06723227    -0.13100
C615        C  0.59823078  0.42947167  0.11983353    -0.11500
C616        C  0.57555026  0.40571151  0.10454913    -0.13100
C617        C  0.52415280  0.75110045  0.40473744    -0.11500
C618        C  0.52607527  0.77753775  0.39655841    -0.13100
C619        C  0.53703212  0.75928383  0.14251004    -0.11500
C620        C  0.53580175  0.78393299  0.13425038    -0.13100
C621        C  0.57151864  0.88017485  0.23429250    -0.11500
C622        C  0.57290640  0.88253169  0.26605077    -0.13100
C623        C  0.57529196  0.89045711  0.01609467    -0.11500
C624        C  0.57202742  0.88541578  0.48476481    -0.13100
C625        C  0.75393653  0.23068001  0.36277304    -0.11500
C626        C  0.77917354  0.25590288  0.35290419    -0.13100
C627        C  0.61608293  0.98906839  0.37344004    -0.11500
C628        C  0.63092949  0.01932064  0.37807744    -0.13100
C629        C  0.77446552  0.25869164  0.10401782    -0.11500
C630        C  0.74906293  0.23316106  0.11232146    -0.13100
C631        C  0.63314898  0.02314792  0.13289393    -0.11500
C632        C  0.61860558  0.99311212  0.12850808    -0.13100
C633        C  0.69098617  0.12828556  0.02129029    -0.11500
C634        C  0.68991331  0.12410313  0.48977470    -0.13100
C635        C  0.69209602  0.12809735  0.23967499    -0.11500
C636        C  0.69366511  0.13083572  0.27131722    -0.13100
C637        C  0.47764538  0.25157762  0.28512926    -0.11500
C638        C  0.47735105  0.22625288  0.27607105    -0.13100
C639        C  0.57296772  0.17117500  0.20102118    -0.11500
C640        C  0.59617993  0.17155535  0.18550907    -0.13100
C641        C  0.55960293  0.09396174  0.32488144    -0.11500
C642        C  0.53696881  0.09282244  0.30811107    -0.13100
C643        C  0.47578446  0.25294788  0.03337169    -0.11500
C644        C  0.47673723  0.22805381  0.02495695    -0.13100
C645        C  0.59793966  0.17002363  0.43771479    -0.11500
C646        C  0.57468320  0.17010605  0.45290750    -0.13100
C647        C  0.53386046  0.09160037  0.06100533    -0.11500
C648        C  0.55589325  0.09149917  0.07776050    -0.13100
C649        C  0.43268388  0.12219373  0.39700413    -0.11500
C650        C  0.43417747  0.12444819  0.36535159    -0.13100
C651        C  0.43231787  0.12162052  0.14693679    -0.11500
C652        C  0.43437483  0.12518030  0.11538107    -0.13100
C653        C  0.25576512  0.77811366  0.48341212    -0.11500
C654        C  0.23000282  0.75282557  0.47505092    -0.13100
C655        C  0.37340843  0.98836077  0.00328334    -0.11500
C656        C  0.38815568  0.01858472  0.00119092    -0.13100
C657        C  0.41239437  0.84079949  0.05331598    -0.11500
C658        C  0.43558311  0.84073036  0.06853661    -0.13100
C659        C  0.44857519  0.91684693  0.44314262    -0.11500
C660        C  0.47053014  0.91622918  0.42666780    -0.13100
C661        C  0.25532562  0.77657592  0.23114931    -0.11500
C662        C  0.22948312  0.75135370  0.22286228    -0.13100
C663        C  0.37542643  0.98630694  0.25521763    -0.11500
C664        C  0.38988283  0.01650273  0.25241333    -0.13100
C665        C  0.40863684  0.83512274  0.30621745    -0.11500
C666        C  0.43178731  0.83494054  0.32125397    -0.13100
C667        C  0.31360116  0.88150508  0.35970274    -0.11500
C668        C  0.31233840  0.87897290  0.39136219    -0.13100
C669        C  0.31723514  0.88037085  0.14129493    -0.11500
C670        C  0.31848506  0.88414893  0.10978663    -0.13100
C671        C  0.47242659  0.91426568  0.18257195    -0.11500
C672        C  0.45046884  0.91439660  0.19951015    -0.13100
O673        O  0.39285692  0.88199964  0.70230852    -0.80100
C674        C  0.32434692  0.88555868  0.82366817     0.99300
O675        O  0.35547399  0.90387234  0.81778832    -0.69200
O676        O  0.38411211  0.86843015  0.80365550    -0.72800
Al677      Al  0.38379649  0.90462323  0.78051363     1.49000
C678        C  0.38847255  0.84658139  0.78848503     0.94500
O679        O  0.31329092  0.81086578  0.74143921    -0.79000
O680        O  0.31876931  0.89243878  0.70155641    -0.72600
Al681      Al  0.35336997  0.84844411  0.72391077     1.90100
O682        O  0.28231446  0.83457495  0.73922710    -0.71600
O683        O  0.33484246  0.92893623  0.75996825    -0.71500
O684        O  0.30361788  0.87034157  0.79898892    -0.77100
O685        O  0.38824888  0.94412814  0.76089361    -0.75300
O686        O  0.35000318  0.87791186  0.75171947    -1.11500
O687        O  0.41944874  0.91096152  0.74953327    -0.70700
C688        C  0.41948550  0.90293303  0.71772114     1.00100
C689        C  0.28493097  0.80861109  0.73853445     0.96400
Al690      Al  0.31292633  0.88120221  0.75024839     1.55600
O691        O  0.37912702  0.83805979  0.75685300    -0.75300
C692        C  0.36553063  0.95147876  0.75867283     1.00600
C693        C  0.32180222  0.87505817  0.67760519     0.95500
O694        O  0.32980209  0.85326466  0.68468923    -0.80600
O695        O  0.39117910  0.88365311  0.94884641    -0.80100
C696        C  0.32757097  0.88888871  0.57321391     0.99300
O697        O  0.35821303  0.90829825  0.56572307    -0.69200
O698        O  0.38781520  0.87406516  0.55051231    -0.72800
Al699      Al  0.38513687  0.90877335  0.52696168     1.49000
C700        C  0.39154084  0.85164859  0.53577403     0.94500
O701        O  0.31389308  0.81320852  0.99240650    -0.79000
O702        O  0.31606134  0.89296200  0.95143423    -0.72600
Al703      Al  0.35291494  0.85056189  0.97271375     1.90100
O704        O  0.28218812  0.83609082  0.99081821    -0.71600
O705        O  0.33390916  0.93080539  0.00933718    -0.71500
O706        O  0.30584285  0.87298161  0.54954414    -0.77100
O707        O  0.38750689  0.94707370  0.50671896    -0.75300
O708        O  0.35024292  0.88060499  0.00016598    -1.11500
O709        O  0.41947060  0.91496723  0.99416917    -0.70700
C710        C  0.41826888  0.90567425  0.96263322     1.00100
C711        C  0.28524230  0.81040592  0.99023565     0.96400
Al712      Al  0.31260058  0.88296345  0.00047552     1.55600
O713        O  0.38055034  0.84170716  0.50480393    -0.75300
C714        C  0.36427930  0.95375954  0.50627582     1.00600
C715        C  0.31841024  0.87500569  0.92759835     0.95500
O716        O  0.32733001  0.85386765  0.93459103    -0.80600
O717        O  0.50999503  0.12481541  0.55630694    -0.80100
C718        C  0.43907671  0.11880204  0.93322841     0.99300
O719        O  0.45213987  0.10108078  0.93980571    -0.69200
O720        O  0.51635273  0.13684848  0.95492274    -0.72800
Al721      Al  0.47905577  0.10083894  0.97789339     1.49000
C722        C  0.54256753  0.15905189  0.97013016     0.94500
O723        O  0.50139833  0.19475712  0.51526495    -0.79000
O724        O  0.42444657  0.11262135  0.55507452    -0.72600
Al725      Al  0.50404587  0.15768976  0.53365665     1.90100
O726        O  0.44626565  0.17000750  0.51684187    -0.71600
O727        O  0.40482273  0.07574585  0.49668672    -0.71500
O728        O  0.43299820  0.13396695  0.95739392    -0.77100
O729        O  0.44341923  0.06140641  0.99730026    -0.75300
O730        O  0.47142468  0.12755286  0.50576364    -1.11500
O731        O  0.50765904  0.09496240  0.51000375    -0.70700
C732        C  0.51529398  0.10338677  0.54180616     1.00100
C733        C  0.47488532  0.19637110  0.51772614     0.96400
Al734      Al  0.43061848  0.12352670  0.50627255     1.55600
O735        O  0.54116741  0.16830735  0.00132630    -0.75300
C736        C  0.41309164  0.05357232  0.49850311     1.00600
C737        C  0.44465270  0.13045466  0.57912319     0.95500
O738        O  0.47471725  0.15261229  0.57224876    -0.80600
O739        O  0.50932342  0.12253587  0.80546593    -0.80100
C740        C  0.43804527  0.11716139  0.68314209     0.99300
O741        O  0.45073874  0.09907451  0.68942484    -0.69200
O742        O  0.51489774  0.13721353  0.70358475    -0.72800
Al743      Al  0.47903909  0.10008372  0.72679576     1.49000
C744        C  0.54121810  0.15905965  0.71894688     0.94500
O745        O  0.50097395  0.19260861  0.76545308    -0.79000
O746        O  0.42417985  0.11061654  0.80530848    -0.72600
Al747      Al  0.50354155  0.15572474  0.78347397     1.90100
O748        O  0.44581094  0.16816326  0.76712419    -0.71600
O749        O  0.40502164  0.07335381  0.74716927    -0.71500
O750        O  0.43205046  0.13205030  0.70764299    -0.77100
O751        O  0.44460322  0.06017601  0.74671398    -0.75300
O752        O  0.47095079  0.12588697  0.75550806    -1.11500
O753        O  0.50943138  0.09547214  0.75775288    -0.70700
C754        C  0.51658296  0.10297565  0.78984642     1.00100
C755        C  0.47464336  0.19439997  0.76814530     0.96400
Al756      Al  0.43009296  0.12145379  0.75648945     1.55600
O757        O  0.54036835  0.16677956  0.75088976    -0.75300
C758        C  0.41409669  0.05168583  0.74881725     1.00600
C759        C  0.44441167  0.12877195  0.82916420     0.95500
O760        O  0.47449710  0.15063668  0.82216662    -0.80600
O761        O  0.61348985  0.12446659  0.58102152    -0.80100
C762        C  0.68166548  0.12372041  0.70354284     0.99300
O763        O  0.65076883  0.10448853  0.69710764    -0.69200
O764        O  0.62159119  0.13918737  0.68279065    -0.72800
Al765      Al  0.62259056  0.10330334  0.65952553     1.49000
C766        C  0.61653586  0.16042324  0.66757224     0.94500
O767        O  0.69128366  0.19735259  0.62131492    -0.79000
O768        O  0.68938254  0.11706989  0.58165946    -0.72600
Al769      Al  0.65220650  0.15901207  0.60317592     1.90100
O770        O  0.72379940  0.17529544  0.62002884    -0.71600
O771        O  0.67297489  0.08064410  0.63965556    -0.71500
O772        O  0.70248271  0.13950271  0.67925271    -0.77100
O773        O  0.61923452  0.06437553  0.63949458    -0.75300
O774        O  0.65635701  0.13041554  0.63116739    -1.11500
O775        O  0.58682579  0.09622779  0.62826871    -0.70700
C776        C  0.58685563  0.10354829  0.59628160     1.00100
C777        C  0.72011856  0.20063669  0.61918509     0.96400
Al778      Al  0.69411482  0.12839783  0.63041898     1.55600
O779        O  0.62537469  0.16851275  0.63580454    -0.75300
C780        C  0.64244078  0.05769828  0.63746155     1.00600
C781        C  0.68589916  0.13378778  0.55752366     0.95500
O782        O  0.67687692  0.15493188  0.56433871    -0.80600
O783        O  0.61693757  0.12821502  0.83123751    -0.80100
C784        C  0.68066724  0.11911469  0.95317058     0.99300
O785        O  0.64988972  0.10015998  0.94579409    -0.69200
O786        O  0.62153013  0.13591554  0.93294629    -0.72800
Al787      Al  0.62295473  0.10096078  0.90784209     1.49000
C788        C  0.61846124  0.15906357  0.91935704     0.94500
O789        O  0.69607048  0.19667605  0.87493184    -0.79000
O790        O  0.69045967  0.11610170  0.83081449    -0.72600
Al791      Al  0.65602475  0.16016083  0.85518121     1.90100
O792        O  0.72640862  0.17242215  0.87117570    -0.71600
O793        O  0.67210270  0.07674614  0.88724740    -0.71500
O794        O  0.70232823  0.13458152  0.92940349    -0.77100
O795        O  0.61896683  0.06215640  0.88603198    -0.75300
O796        O  0.65791250  0.12899119  0.88114620    -1.11500
O797        O  0.58872233  0.09605315  0.87582310    -0.70700
C798        C  0.58990505  0.10581872  0.84462491     1.00100
C799        C  0.72428787  0.19870629  0.87118127     0.96400
Al800      Al  0.69479783  0.12531752  0.88006621     1.55600
O801        O  0.62960916  0.16957792  0.88864577    -0.75300
C802        C  0.64139396  0.05440540  0.88386132     1.00600
C803        C  0.68839173  0.13472431  0.80785044     0.95500
O804        O  0.68044679  0.15642382  0.81600711    -0.80600
O805        O  0.49650638  0.88139577  0.67499194    -0.80100
C806        C  0.57085226  0.89526077  0.55260470     0.99300
O807        O  0.55781568  0.91289890  0.56011710    -0.69200
O808        O  0.49356504  0.87540847  0.57307608    -0.72800
Al809      Al  0.52967629  0.91066769  0.59841981     1.49000
C810        C  0.46730818  0.85179997  0.58656705     0.94500
O811        O  0.50946116  0.81597388  0.62825518    -0.79000
O812        O  0.58314715  0.89678464  0.67507221    -0.72600
Al813      Al  0.50459555  0.85082314  0.64986312     1.90100
O814        O  0.56456103  0.84220215  0.63245797    -0.71600
O815        O  0.60371761  0.93683864  0.61934964    -0.71500
O816        O  0.57796176  0.88061048  0.57616732    -0.77100
O817        O  0.56404891  0.94963397  0.62035951    -0.75300
O818        O  0.53754985  0.88327138  0.62447596    -1.11500
O819        O  0.49980541  0.91388910  0.63114771    -0.70700
C820        C  0.49135492  0.90350094  0.66225470     1.00100
C821        C  0.53651497  0.81533295  0.63033228     0.96400
Al822      Al  0.57889378  0.88866561  0.62547954     1.55600
O823        O  0.46817224  0.84097616  0.61695497    -0.75300
C824        C  0.59451077  0.95820266  0.62268794     1.00600
C825        C  0.56250119  0.87691123  0.69760395     0.95500
O826        O  0.53303685  0.85442695  0.68884394    -0.80600
O827        O  0.49640655  0.88464418  0.92466508    -0.80100
C828        C  0.56688192  0.88683135  0.80236041     0.99300
O829        O  0.55443378  0.90515188  0.80869377    -0.69200
O830        O  0.49013068  0.86749914  0.82307952    -0.72800
Al831      Al  0.52641141  0.90496490  0.84592382     1.49000
C832        C  0.46371115  0.84636398  0.83876175     0.94500
O833        O  0.50341427  0.81241345  0.88675720    -0.79000
O834        O  0.58127289  0.89510807  0.92431189    -0.72600
Al835      Al  0.50164081  0.85048207  0.90352849     1.90100
O836        O  0.55850045  0.83610835  0.88693484    -0.71600
O837        O  0.60049041  0.93169642  0.86650020    -0.71500
O838        O  0.57256524  0.87188535  0.82686872    -0.77100
O839        O  0.56122420  0.94526027  0.86566383    -0.75300
O840        O  0.53420848  0.87933694  0.87498264    -1.11500
O841        O  0.49644310  0.91064707  0.87642708    -0.70700
C842        C  0.48967139  0.90428444  0.90864907     1.00100
C843        C  0.52947016  0.81003266  0.88889319     0.96400
Al844      Al  0.57484083  0.88325164  0.87583062     1.55600
O845        O  0.46471977  0.83901922  0.87075337    -0.75300
C846        C  0.59168907  0.95366548  0.86838738     1.00600
C847        C  0.56117830  0.87858841  0.94875367     0.95500
O848        O  0.53092534  0.85657178  0.94241908    -0.80600
O849        O  0.61329145  0.49078651  0.72613920    -0.80100
C850        C  0.67673277  0.56458035  0.60364094     0.99300
O851        O  0.64579859  0.55103479  0.61079269    -0.69200
O852        O  0.61946961  0.48693042  0.62419757    -0.72800
Al853      Al  0.61928940  0.52273937  0.64872586     1.49000
C854        C  0.61692848  0.46110483  0.63831025     0.94500
O855        O  0.69255893  0.50224086  0.68294236    -0.79000
O856        O  0.68692951  0.57718569  0.72594503    -0.72600
Al857      Al  0.65265294  0.49833242  0.70257089     1.90100
O858        O  0.72275365  0.55733172  0.68477029    -0.71600
O859        O  0.66728418  0.59676584  0.67001404    -0.71500
O860        O  0.69832924  0.57097627  0.62744675    -0.77100
O861        O  0.61423947  0.55703086  0.67007905    -0.75300
O862        O  0.65427941  0.53094187  0.67592153    -1.11500
O863        O  0.58506985  0.49254327  0.68043706    -0.70700
C864        C  0.58611732  0.48477116  0.71200768     1.00100
C865        C  0.72078368  0.52897507  0.68453178     0.96400
Al866      Al  0.69080412  0.57210270  0.67677524     1.55600
O867        O  0.62685698  0.46201528  0.66958864    -0.75300
C868        C  0.63640933  0.58754948  0.67263004     1.00600
C869        C  0.68508577  0.55688254  0.74919808     0.95500
O870        O  0.67705515  0.52706931  0.74149720    -0.80600
O871        O  0.61461914  0.49499701  0.97661237    -0.80100
C872        C  0.67941251  0.56415537  0.85324732     0.99300
O873        O  0.64838711  0.55127774  0.85966963    -0.69200
O874        O  0.62053853  0.48763990  0.87495893    -0.72800
Al875      Al  0.62097240  0.52438771  0.89781032     1.49000
C876        C  0.61569751  0.46156254  0.89049507     0.94500
O877        O  0.69291141  0.50363468  0.93410644    -0.79000
O878        O  0.68684374  0.57988623  0.97523376    -0.72600
Al879      Al  0.65329299  0.50077409  0.95349735     1.90100
O880        O  0.72353465  0.55874644  0.93676835    -0.71600
O881        O  0.66959599  0.59885181  0.91637177    -0.71500
O882        O  0.70067422  0.57114470  0.87760610    -0.77100
O883        O  0.61641791  0.55957764  0.91692934    -0.75300
O884        O  0.65548731  0.53287131  0.92572110    -1.11500
O885        O  0.58637027  0.49548585  0.93019296    -0.70700
C886        C  0.58748339  0.48857735  0.96213666     1.00100
C887        C  0.72128065  0.53024946  0.93635176     0.96400
Al888      Al  0.69221549  0.57381848  0.92634076     1.55600
O889        O  0.62606997  0.46322576  0.92176870    -0.75300
C890        C  0.63878049  0.59007408  0.91743514     1.00600
C891        C  0.68484004  0.55994657  0.99911366     0.95500
O892        O  0.67820984  0.53043801  0.99182462    -0.80600
O893        O  0.50941416  0.38954460  0.00229440    -0.80100
C894        C  0.43951509  0.32421081  0.62568938     0.99300
O895        O  0.45417119  0.35539897  0.62005552    -0.69200
O896        O  0.51746549  0.37975594  0.60404311    -0.72800
Al897      Al  0.48208191  0.38256686  0.58230199     1.49000
C898        C  0.54342471  0.38502924  0.58765549     0.94500
O899        O  0.50051001  0.31081871  0.54253876    -0.79000
O900        O  0.42469480  0.31785594  0.00332305    -0.72600
Al901      Al  0.50369992  0.35048774  0.52420370     1.90100
O902        O  0.44512175  0.28053247  0.54150383    -0.71600
O903        O  0.40719747  0.33742656  0.56136363    -0.71500
O904        O  0.43197732  0.30340541  0.60073853    -0.77100
O905        O  0.44850483  0.38979929  0.56409737    -0.75300
O906        O  0.47207774  0.34845640  0.55297946    -1.11500
O907        O  0.51216237  0.41734111  0.55065106    -0.70700
C908        C  0.51726055  0.41660844  0.51800659     1.00100
C909        C  0.47370561  0.28265862  0.54048631     0.96400
Al910      Al  0.43058890  0.31265751  0.55204897     1.55600
O911        O  0.54169304  0.37676073  0.55551826    -0.75300
C912        C  0.41775326  0.36872047  0.56091717     1.00600
C913        C  0.44409938  0.31878728  0.97930425     0.95500
O914        O  0.47382567  0.32598097  0.98607493    -0.80600
O915        O  0.50817778  0.38668140  0.75284372    -0.80100
C916        C  0.43598790  0.32146126  0.87506013     0.99300
O917        O  0.44672434  0.35184239  0.86735957    -0.69200
O918        O  0.51159614  0.38309500  0.85413054    -0.72800
Al919      Al  0.47398519  0.37918648  0.82931180     1.49000
C920        C  0.53801692  0.38621949  0.84051066     0.94500
O921        O  0.50023416  0.30924497  0.79541950    -0.79000
O922        O  0.42247096  0.31027409  0.75336301    -0.72600
Al923      Al  0.50206055  0.34819418  0.77628324     1.90100
O924        O  0.44545558  0.27689258  0.79276797    -0.71600
O925        O  0.40101016  0.32619124  0.81095310    -0.71500
O926        O  0.43142470  0.29986261  0.85166774    -0.77100
O927        O  0.43755302  0.38005749  0.80752567    -0.75300
O928        O  0.46846146  0.34467548  0.80281971    -1.11500
O929        O  0.50282996  0.41402409  0.79743325    -0.70700
C930        C  0.51258955  0.41340933  0.76655869     1.00100
C931        C  0.47444513  0.28048430  0.79251157     0.96400
Al932      Al  0.42849786  0.30644244  0.80243434     1.55600
O933        O  0.53760317  0.37511405  0.80977919    -0.75300
C934        C  0.40765276  0.35600494  0.80691404     1.00600
C935        C  0.44352907  0.31432490  0.72967244     0.95500
O936        O  0.47372643  0.32335445  0.73712499    -0.80600
O937        O  0.52926059  0.69555115  0.72414880    -0.80100
C938        C  0.57325672  0.67799693  0.59664979     0.99300
O939        O  0.57956997  0.70177100  0.61768477    -0.69200
O940        O  0.56440027  0.73241193  0.66663478    -0.72800
Al941      Al  0.57755293  0.69829034  0.66786012     1.49000
C942        C  0.53737553  0.73000374  0.65506751     0.94500
O943        O  0.46735167  0.63505212  0.65188997    -0.79000
O944        O  0.49045039  0.59584934  0.67692297    -0.72600
Al945      Al  0.50221695  0.66633650  0.68538116     1.90100
O946        O  0.49976416  0.63058297  0.61319139    -0.71600
O947        O  0.55750808  0.62001737  0.67419867    -0.71500
O948        O  0.56158282  0.64829945  0.60808389    -0.77100
O949        O  0.59994913  0.67171059  0.66845409    -0.75300
O950        O  0.53605162  0.66341198  0.66653013    -1.11500
O951        O  0.57751656  0.69682314  0.71807692    -0.70700
C952        C  0.55552576  0.69746633  0.73754813     1.00100
C953        C  0.47104383  0.62221011  0.62374200     0.96400
Al954      Al  0.52799739  0.62623754  0.64493391     1.55600
O955        O  0.51014375  0.70229497  0.65549867    -0.75300
C956        C  0.58872142  0.64073445  0.67449434     1.00600
C957        C  0.47899143  0.60147650  0.70524862     0.95500
O958        O  0.49093444  0.63091763  0.71666751    -0.80600
O959        O  0.48488887  0.61181031  0.86947158    -0.80100
C960        C  0.56402193  0.67578991  0.99063105     0.99300
O961        O  0.54861852  0.64494646  0.98295923    -0.69200
O962        O  0.48404506  0.61501298  0.96992742    -0.72800
Al963      Al  0.52133996  0.61851925  0.94467806     1.49000
C964        C  0.45819971  0.61422146  0.95794569     0.94500
O965        O  0.49834062  0.69228112  0.91307083    -0.79000
O966        O  0.57204075  0.68796728  0.86619958    -0.72600
Al967      Al  0.49363062  0.65158105  0.89355883     1.90100
O968        O  0.55340350  0.72227166  0.91083651    -0.71600
O969        O  0.59503535  0.66903549  0.92150042    -0.71500
O970        O  0.57013439  0.69786429  0.96735227    -0.77100
O971        O  0.55693337  0.61573312  0.92360216    -0.75300
O972        O  0.52780858  0.65370690  0.91853570    -1.11500
O973        O  0.49313414  0.58468195  0.91192437    -0.70700
C974        C  0.48320780  0.58559645  0.88134471     1.00100
C975        C  0.52516164  0.72049444  0.91085924     0.96400
Al976      Al  0.56887652  0.69091734  0.91681217     1.55600
O977        O  0.45870414  0.62631068  0.92796298    -0.75300
C978        C  0.58708219  0.63858479  0.92080355     1.00600
C979        C  0.55015089  0.68535521  0.84413233     0.95500
O980        O  0.52026832  0.67526087  0.85356486    -0.80600
O981        O  0.38070603  0.51210026  0.60104826    -0.80100
C982        C  0.32968425  0.44118128  0.97558245     0.99300
O983        O  0.36000116  0.45351333  0.98555597    -0.69200
O984        O  0.37917695  0.51661053  0.99764740    -0.72800
Al985      Al  0.38297782  0.48433267  0.52441490     1.49000
C986        C  0.38140412  0.54256758  0.51137696     0.94500
O987        O  0.30436186  0.49735654  0.55180557    -0.79000
O988        O  0.31417683  0.42521503  0.59653715    -0.72600
Al989      Al  0.34308161  0.50356421  0.57480449     1.90100
O990        O  0.27669146  0.44225961  0.55458679    -0.71600
O991        O  0.33878836  0.41009791  0.54102553    -0.71500
O992        O  0.30643457  0.43381373  0.49774842    -0.77100
O993        O  0.39028289  0.45256589  0.54892281    -0.75300
O994        O  0.34574922  0.47305963  0.54873753    -1.11500
O995        O  0.41400026  0.51993834  0.55673686    -0.70700
C996        C  0.40865493  0.52889563  0.58656984     1.00100
C997        C  0.27712705  0.46991136  0.55373597     0.96400
Al998      Al  0.31153299  0.43101029  0.54732033     1.55600
O999        O  0.36963865  0.54143548  0.54212758    -0.75300
C1000       C  0.36961023  0.42126783  0.54790377     1.00600
C1001       C  0.31317263  0.44402373  0.62022265     0.95500
O1002       O  0.31761643  0.47281019  0.61281254    -0.80600
O1003       O  0.39071226  0.50262340  0.84220345    -0.80100
C1004       C  0.31919820  0.42943457  0.72405360     0.99300
O1005       O  0.34889639  0.43623060  0.73084042    -0.69200
O1006       O  0.38104190  0.50075761  0.73957247    -0.72800
Al1007     Al  0.37911331  0.46602271  0.76656275     1.49000
C1008       C  0.39274895  0.52938751  0.75296488     0.94500
O1009       O  0.31516625  0.49923898  0.79874184    -0.79000
O1010       O  0.31455852  0.42208594  0.84705406    -0.72600
Al1011     Al  0.35348372  0.49937576  0.81872163     1.90100
O1012       O  0.28065353  0.44518832  0.80692934    -0.71600
O1013       O  0.32635138  0.39568066  0.79010019    -0.71500
O1014       O  0.29907968  0.42615179  0.74857333    -0.77100
O1015       O  0.38065924  0.43175125  0.79063639    -0.75300
O1016       O  0.34684119  0.46362767  0.79428054    -1.11500
O1017       O  0.41652446  0.49721792  0.79612666    -0.70700
C1018       C  0.41715998  0.50788696  0.82708343     1.00100
C1019       C  0.28569936  0.47468832  0.80374719     0.96400
Al1020     Al  0.30798759  0.42510504  0.79772675     1.55600
O1021       O  0.38344702  0.53275909  0.78361808    -0.75300
C1022       C  0.35645936  0.40224194  0.79315994     1.00600
C1023       C  0.32014908  0.44484555  0.86937511     0.95500
O1024       O  0.32795139  0.47416818  0.85955548    -0.80600
O1025       O  0.12467967  0.51123605  0.53283175    -0.80100
C1026       C  0.11471082  0.43915609  0.65535280     0.99300
O1027       O  0.09678421  0.45204136  0.64872632    -0.69200
O1028       O  0.13441658  0.51585717  0.63456853    -0.72800
Al1029     Al  0.09802319  0.47974818  0.61057035     1.49000
C1030       C  0.15737629  0.54179103  0.61997819     0.94500
O1031       O  0.19114044  0.49883917  0.57663805    -0.79000
O1032       O  0.10868487  0.42470109  0.53286432    -0.72600
Al1033     Al  0.15591793  0.50349652  0.55656106     1.90100
O1034       O  0.16455850  0.44375227  0.57272733    -0.71600
O1035       O  0.07078656  0.40549939  0.59064620    -0.71500
O1036       O  0.12863726  0.43173889  0.63104459    -0.77100
O1037       O  0.05824091  0.44532782  0.59004097    -0.75300
O1038       O  0.12427350  0.47118114  0.58316685    -1.11500
O1039       O  0.09412522  0.50944683  0.57826612    -0.70700
C1040       C  0.10351646  0.51729105  0.54673893     1.00100
C1041       C  0.19148733  0.47175774  0.57358045     0.96400
Al1042     Al  0.11861747  0.42983151  0.58212750     1.55600
O1043       O  0.16695783  0.54039070  0.58904880    -0.75300
C1044       C  0.04945234  0.41481856  0.58822931     1.00600
C1045       C  0.12827596  0.44484117  0.50978490     0.95500
O1046       O  0.15099610  0.47438409  0.51780968    -0.80600
O1047       O  0.12733120  0.51291577  0.78255051    -0.80100
C1048       C  0.12108075  0.44170981  0.90529696     0.99300
O1049       O  0.10381726  0.45523336  0.89867400    -0.69200
O1050       O  0.14150614  0.51926890  0.88433886    -0.72800
Al1051     Al  0.10459139  0.48290153  0.86109958     1.49000
C1052       C  0.16302358  0.54556062  0.86890517     0.94500
O1053       O  0.19803722  0.50491315  0.82311782    -0.79000
O1054       O  0.11545692  0.42809002  0.78328342    -0.72600
Al1055     Al  0.16069512  0.50728947  0.80489169     1.90100
O1056       O  0.17337740  0.44980385  0.82215574    -0.71600
O1057       O  0.07795518  0.40876824  0.84076363    -0.71500
O1058       O  0.13642942  0.43583083  0.88118852    -0.77100
O1059       O  0.06461949  0.44811501  0.84116044    -0.75300
O1060       O  0.13075434  0.47485303  0.83287022    -1.11500
O1061       O  0.09943187  0.51234379  0.82976011    -0.70700
C1062       C  0.10673531  0.51907154  0.79767819     1.00100
C1063       C  0.19983572  0.47851134  0.82137595     0.96400
Al1064     Al  0.12631965  0.43404064  0.83206600     1.55600
O1065       O  0.17148173  0.54433473  0.83734822    -0.75300
C1066       C  0.05611582  0.41766542  0.83907614     1.00600
C1067       C  0.13279749  0.44817186  0.75917824     0.95500
O1068       O  0.15547377  0.47802234  0.76608999    -0.80600
O1069       O  0.12478282  0.61605642  0.75735931    -0.80100
C1070       C  0.11758736  0.67952518  0.63449586     0.99300
O1071       O  0.09838072  0.64885860  0.64179678    -0.69200
O1072       O  0.13390430  0.62028440  0.65555339    -0.72800
Al1073     Al  0.09879345  0.62199818  0.67994903     1.49000
C1074       C  0.15676115  0.61705942  0.66987607     0.94500
O1075       O  0.19426088  0.69355851  0.71377367    -0.79000
O1076       O  0.11423093  0.69023834  0.75646110    -0.72600
Al1077     Al  0.15738341  0.65454410  0.73364650     1.90100
O1078       O  0.17112468  0.72496245  0.71655496    -0.71600
O1079       O  0.07583075  0.67221377  0.69938560    -0.71500
O1080       O  0.13357158  0.70113479  0.65825638    -0.77100
O1081       O  0.06017980  0.61882564  0.70122603    -0.75300
O1082       O  0.12686071  0.65684407  0.70687731    -1.11500
O1083       O  0.09356848  0.58770669  0.71200288    -0.70700
C1084       C  0.10319876  0.58889043  0.74333656     1.00100
C1085       C  0.19697025  0.72205740  0.71637202     0.96400
Al1086     Al  0.12398728  0.69410090  0.70738268     1.55600
O1087       O  0.16655087  0.62769685  0.70092151    -0.75300
C1088       C  0.05313356  0.64178809  0.70280987     1.00600
C1089       C  0.13229036  0.68787896  0.77997919     0.95500
O1090       O  0.15392354  0.67965340  0.77243551    -0.80600
O1091       O  0.12593972  0.61608007  0.50593020    -0.80100
C1092       C  0.11986361  0.68176868  0.88423696     0.99300
O1093       O  0.10129716  0.65083168  0.89068615    -0.69200
O1094       O  0.13739865  0.62289273  0.90436009    -0.72800
Al1095     Al  0.10135505  0.62334354  0.92824447     1.49000
C1096       C  0.16014705  0.61967762  0.91895740     0.94500
O1097       O  0.19558226  0.69511084  0.96483561    -0.79000
O1098       O  0.11399361  0.68926761  0.50637297    -0.72600
Al1099     Al  0.15867612  0.65532747  0.98341162     1.90100
O1100       O  0.17162335  0.72577998  0.96779797    -0.71600
O1101       O  0.07661760  0.67206399  0.94864407    -0.71500
O1102       O  0.13508739  0.70296049  0.90858331    -0.77100
O1103       O  0.06188796  0.61889113  0.94875041    -0.75300
O1104       O  0.12840393  0.65772455  0.95624787    -1.11500
O1105       O  0.09586555  0.58850786  0.95965493    -0.70700
C1106       C  0.10461493  0.58917221  0.99126198     1.00100
C1107       C  0.19776113  0.72334817  0.96791309     0.96400
Al1108     Al  0.12472047  0.69452942  0.95751892     1.55600
O1109       O  0.16912266  0.62963305  0.95034511    -0.75300
C1110       C  0.05423697  0.64139201  0.95096799     1.00600
C1111       C  0.13169095  0.68659070  0.53007533     0.95500
O1112       O  0.15394500  0.67919739  0.52263632    -0.80600
O1113       O  0.88302491  0.49835513  0.66001296    -0.80100
C1114       C  0.88750395  0.56776950  0.78387695     0.99300
O1115       O  0.90587590  0.55542827  0.77708741    -0.69200
O1116       O  0.86957374  0.49137081  0.76189478    -0.72800
Al1117     Al  0.90589359  0.52828441  0.73889119     1.49000
C1118       C  0.84811905  0.46497937  0.74633303     0.94500
O1119       O  0.81200617  0.50477103  0.70216839    -0.79000
O1120       O  0.89351090  0.58241985  0.66195061    -0.72600
Al1121     Al  0.84942339  0.50311049  0.68305018     1.90100
O1122       O  0.83576380  0.55980211  0.70112862    -0.71600
O1123       O  0.93114892  0.60225463  0.71944524    -0.71500
O1124       O  0.87256235  0.57393466  0.75975527    -0.77100
O1125       O  0.94534234  0.56354468  0.71918804    -0.75300
O1126       O  0.87921917  0.53577324  0.71107495    -1.11500
O1127       O  0.91165876  0.49944033  0.70672976    -0.70700
C1128       C  0.90400511  0.49257185  0.67465141     1.00100
C1129       C  0.80966794  0.53085715  0.70067052     0.96400
Al1130     Al  0.88286925  0.57626081  0.71079834     1.55600
O1131       O  0.83948917  0.46610656  0.71487639    -0.75300
C1132       C  0.95326637  0.59379022  0.71707006     1.00600
C1133       C  0.87579059  0.56218718  0.63791051     0.95500
O1134       O  0.85365596  0.53219141  0.64479669    -0.80600
O1135       O  0.88099805  0.49649388  0.91100571    -0.80100
C1136       C  0.88959144  0.56918475  0.53375435     0.99300
O1137       O  0.90773735  0.55663940  0.52671563    -0.69200
O1138       O  0.86974752  0.49240215  0.51316506    -0.72800
Al1139     Al  0.90606091  0.52820782  0.98893203     1.49000
C1140       C  0.84705299  0.46607197  0.99856630     0.94500
O1141       O  0.81198533  0.50572324  0.95387396    -0.79000
O1142       O  0.89315294  0.58169887  0.91158130    -0.72600
Al1143     Al  0.84847268  0.50282101  0.93435601     1.90100
O1144       O  0.83646345  0.56075487  0.95198478    -0.71600
O1145       O  0.93221592  0.60191147  0.96812138    -0.71500
O1146       O  0.87437221  0.57517942  0.50980564    -0.77100
O1147       O  0.94545552  0.56249148  0.96786175    -0.75300
O1148       O  0.87924335  0.53576236  0.96140931    -1.11500
O1149       O  0.91026695  0.49802494  0.95731813    -0.70700
C1150       C  0.90195376  0.49056293  0.92546287     1.00100
C1151       C  0.81009274  0.53201013  0.95219641     0.96400
Al1152     Al  0.88364353  0.57654599  0.96064742     1.55600
O1153       O  0.83822333  0.46658922  0.96707831    -0.75300
C1154       C  0.95390977  0.59287996  0.96541239     1.00600
C1155       C  0.87472115  0.56117369  0.88808888     0.95500
O1156       O  0.85266086  0.53131831  0.89558909    -0.80600
O1157       O  0.88302791  0.39449172  0.63508657    -0.80100
C1158       C  0.88400462  0.32713801  0.51128006     0.99300
O1159       O  0.90266156  0.35800725  0.51804011    -0.69200
O1160       O  0.86683338  0.38595284  0.53345904    -0.72800
Al1161     Al  0.90334034  0.38570827  0.55596001     1.49000
C1162       C  0.84573731  0.39098775  0.54933865     0.94500
O1163       O  0.80981935  0.31649299  0.59552401    -0.79000
O1164       O  0.89085857  0.31892738  0.63279663    -0.72600
Al1165     Al  0.84828272  0.35569882  0.61319242     1.90100
O1166       O  0.83233956  0.28437682  0.59499485    -0.71600
O1167       O  0.92690684  0.33604959  0.57454021    -0.71500
O1168       O  0.86799130  0.30616044  0.53533121    -0.77100
O1169       O  0.94261444  0.38959940  0.57543812    -0.75300
O1170       O  0.87670603  0.35182130  0.58431823    -1.11500
O1171       O  0.91012554  0.42125743  0.58740600    -0.70700
C1172       C  0.90348065  0.42115275  0.61965514     1.00100
C1173       C  0.80683172  0.28780299  0.59690062     0.96400
Al1174     Al  0.87917816  0.31437791  0.58422828     1.55600
O1175       O  0.83809498  0.38226395  0.58121454    -0.75300
C1176       C  0.94960648  0.36662250  0.57690727     1.00600
C1177       C  0.87444668  0.32238892  0.65745721     0.95500
O1178       O  0.85310644  0.33127998  0.65143619    -0.80600
O1179       O  0.88214245  0.39276837  0.88376505    -0.80100
C1180       C  0.89013747  0.32847995  0.76132264     0.99300
O1181       O  0.90895667  0.35931188  0.76843026    -0.69200
O1182       O  0.87264401  0.38704433  0.78202607    -0.72800
Al1183     Al  0.90823422  0.38641045  0.80641248     1.49000
C1184       C  0.84971499  0.39025049  0.79628063     0.94500
O1185       O  0.81310293  0.31364862  0.84083587    -0.79000
O1186       O  0.89431729  0.31967555  0.88364912    -0.72600
Al1187     Al  0.84982941  0.35368054  0.86023572     1.90100
O1188       O  0.83748255  0.28341948  0.84397349    -0.71600
O1189       O  0.93285115  0.33772569  0.82624664    -0.71500
O1190       O  0.87480524  0.30706785  0.78525751    -0.77100
O1191       O  0.94745393  0.39084893  0.82738480    -0.75300
O1192       O  0.88071606  0.35169922  0.83358090    -1.11500
O1193       O  0.91307674  0.42087302  0.83838317    -0.70700
C1194       C  0.90365570  0.41985456  0.86980015     1.00100
C1195       C  0.81113776  0.28550680  0.84435689     0.96400
Al1196     Al  0.88452573  0.31498330  0.83442679     1.55600
O1197       O  0.83997100  0.37978377  0.82731624    -0.75300
C1198       C  0.95522457  0.36842551  0.82885223     1.00600
C1199       C  0.87561304  0.32157073  0.90687338     0.95500
O1200       O  0.85388228  0.32949850  0.89905780    -0.80600
C1201       C  0.88077490  0.31697974  0.97505111    -0.11500
C1202       C  0.87913382  0.31589042  0.94332126    -0.13100
C1203       C  0.88506655  0.31885865  0.72483252    -0.11500
C1204       C  0.88056639  0.31749145  0.69340938    -0.13100
C1205       C  0.83444876  0.41135225  0.53204712    -0.11500
C1206       C  0.83492491  0.43457391  0.51673935    -0.13100
C1207       C  0.91352888  0.47179369  0.90611164    -0.11500
C1208       C  0.91427982  0.45018491  0.88909399    -0.13100
C1209       C  0.88282449  0.57299888  0.82021180    -0.11500
C1210       C  0.87933077  0.57089443  0.85175968    -0.13100
C1211       C  0.88131785  0.57237384  0.60168353    -0.11500
C1212       C  0.88523686  0.57461022  0.57016538    -0.13100
C1213       C  0.83751579  0.43309817  0.76335181    -0.11500
C1214       C  0.83813017  0.41018562  0.77828741    -0.13100
C1215       C  0.91588824  0.47411238  0.65529601    -0.11500
C1216       C  0.91577293  0.45203379  0.63836240    -0.13100
C1217       C  0.01928056  0.63127116  0.95580104    -0.11500
C1218       C  0.98910758  0.61694192  0.96008614    -0.13100
C1219       C  0.98833927  0.61828338  0.71224925    -0.11500
C1220       C  0.01847124  0.63244890  0.70797286    -0.13100
C1221       C  0.12441643  0.69180061  0.84798726    -0.11500
C1222       C  0.12776862  0.69317268  0.81639463    -0.13100
C1223       C  0.12211255  0.68885566  0.59802976    -0.11500
C1224       C  0.12608746  0.69065179  0.56651796    -0.13100
C1225       C  0.02071127  0.39337143  0.83548436    -0.11500
C1226       C  0.99035383  0.37874758  0.83265028    -0.13100
C1227       C  0.09442315  0.53732035  0.77883843    -0.11500
C1228       C  0.09297686  0.55865663  0.76230840    -0.13100
C1229       C  0.17241397  0.60023759  0.90092654    -0.11500
C1230       C  0.17355951  0.57748602  0.88603686    -0.13100
C1231       C  0.98424783  0.37617618  0.58072442    -0.11500
C1232       C  0.01437910  0.39078337  0.58403488    -0.13100
C1233       C  0.09322168  0.55863443  0.51012203    -0.11500
C1234       C  0.09296666  0.53664896  0.52714800    -0.13100
C1235       C  0.16825790  0.59692402  0.65202040    -0.11500
C1236       C  0.16869857  0.57376922  0.63725436    -0.13100
C1237       C  0.12481464  0.43525007  0.97330328    -0.11500
C1238       C  0.12358784  0.43449514  0.94152781    -0.13100
C1239       C  0.12048337  0.43497948  0.69163161    -0.11500
C1240       C  0.12597318  0.43792746  0.72290769    -0.13100
C1241       C  0.25748389  0.47995656  0.80892216    -0.11500
C1242       C  0.23209333  0.48078786  0.81563470    -0.13100
C1243       C  0.22237221  0.47231575  0.56723673    -0.11500
C1244       C  0.24683736  0.47069522  0.55938170    -0.13100
C1245       C  0.32217436  0.43705938  0.93829330    -0.11500
C1246       C  0.31905012  0.43821631  0.90669326    -0.13100
C1247       C  0.30851226  0.43334568  0.65651970    -0.11500
C1248       C  0.30986174  0.42824889  0.68758467    -0.13100
C1249       C  0.42692799  0.59590831  0.97758669    -0.11500
C1250       C  0.40292671  0.57419650  0.99368248    -0.13100
C1251       C  0.46753050  0.55551971  0.86049216    -0.11500
C1252       C  0.44809811  0.53099611  0.84391899    -0.13100
C1253       C  0.55918419  0.69799466  0.77557686    -0.11500
C1254       C  0.55826125  0.69382430  0.80727200    -0.13100
C1255       C  0.57378275  0.68443646  0.52717923    -0.11500
C1256       C  0.57674332  0.68401031  0.55897204    -0.13100
C1257       C  0.44862367  0.57566413  0.72199839    -0.11500
C1258       C  0.42191677  0.55658078  0.73598380    -0.13100
C1259       C  0.44484434  0.59104586  0.60991390    -0.11500
C1260       C  0.42995002  0.56238506  0.59950696    -0.13100
C1261       C  0.38109478  0.36322349  0.80238382    -0.11500
C1262       C  0.36465183  0.37656069  0.79845086    -0.13100
C1263       C  0.38164563  0.39811394  0.55326896    -0.11500
C1264       C  0.39517112  0.38160804  0.55697041    -0.13100
C1265       C  0.43082313  0.31275468  0.91164171    -0.11500
C1266       C  0.43327990  0.31266015  0.94325612    -0.13100
C1267       C  0.43418201  0.31035791  0.69313436    -0.11500
C1268       C  0.43306359  0.31317595  0.66164163    -0.13100
C1269       C  0.77766661  0.52929446  0.94750559    -0.11500
C1270       C  0.75145232  0.52849609  0.94136894    -0.13100
C1271       C  0.62807463  0.61450400  0.91804892    -0.11500
C1272       C  0.61234229  0.62899954  0.91836773    -0.13100
C1273       C  0.53574614  0.44716575  0.99892414    -0.11500
C1274       C  0.55719313  0.46938484  0.98159217    -0.13100
C1275       C  0.59369341  0.42944797  0.87375211    -0.11500
C1276       C  0.56964615  0.40646352  0.85890373    -0.13100
C1277       C  0.75109837  0.52737271  0.68918992    -0.11500
C1278       C  0.77716338  0.52789105  0.69548083    -0.13100
C1279       C  0.62559234  0.61179832  0.67711073    -0.11500
C1280       C  0.61130084  0.62777989  0.67816962    -0.13100
C1281       C  0.53270624  0.44393408  0.74780245    -0.11500
C1282       C  0.55556880  0.46570065  0.73130011    -0.13100
C1283       C  0.69069938  0.56681256  0.78551799    -0.11500
C1284       C  0.68950345  0.56915069  0.81704953    -0.13100
C1285       C  0.68865973  0.56968276  0.53560850    -0.11500
C1286       C  0.68647171  0.57093588  0.56723229    -0.13100
C1287       C  0.59823078  0.42947172  0.61983348    -0.11500
C1288       C  0.57555027  0.40571150  0.60454910    -0.13100
C1289       C  0.52415280  0.75110050  0.90473743    -0.11500
C1290       C  0.52607526  0.77753771  0.89655842    -0.13100
C1291       C  0.53703215  0.75928385  0.64251005    -0.11500
C1292       C  0.53580176  0.78393292  0.63425041    -0.13100
C1293       C  0.57151860  0.88017485  0.73429253    -0.11500
C1294       C  0.57290644  0.88253167  0.76605079    -0.13100
C1295       C  0.57529204  0.89045711  0.51609464    -0.11500
C1296       C  0.57202732  0.88541567  0.98476484    -0.13100
C1297       C  0.75393650  0.23067992  0.86277304    -0.11500
C1298       C  0.77917371  0.25590299  0.85290417    -0.13100
C1299       C  0.61608299  0.98906846  0.87344005    -0.11500
C1300       C  0.63092950  0.01932059  0.87807742    -0.13100
C1301       C  0.77446557  0.25869170  0.60401776    -0.11500
C1302       C  0.74906297  0.23316107  0.61232145    -0.13100
C1303       C  0.63314908  0.02314809  0.63289394    -0.11500
C1304       C  0.61860557  0.99311203  0.62850808    -0.13100
C1305       C  0.69098614  0.12828555  0.52129025    -0.11500
C1306       C  0.68991337  0.12410307  0.98977475    -0.13100
C1307       C  0.69209603  0.12809731  0.73967502    -0.11500
C1308       C  0.69366515  0.13083573  0.77131723    -0.13100
C1309       C  0.47764525  0.25157747  0.78512927    -0.11500
C1310       C  0.47735104  0.22625297  0.77607104    -0.13100
C1311       C  0.57296773  0.17117497  0.70102124    -0.11500
C1312       C  0.59617996  0.17155533  0.68550908    -0.13100
C1313       C  0.55960308  0.09396185  0.82488147    -0.11500
C1314       C  0.53696874  0.09282242  0.80811101    -0.13100
C1315       C  0.47578450  0.25294790  0.53337167    -0.11500
C1316       C  0.47673709  0.22805369  0.52495696    -0.13100
C1317       C  0.59793953  0.17002357  0.93771477    -0.11500
C1318       C  0.57468318  0.17010598  0.95290737    -0.13100
C1319       C  0.53386041  0.09160027  0.56100543    -0.11500
C1320       C  0.55589320  0.09149917  0.57776060    -0.13100
C1321       C  0.43268370  0.12219376  0.89700414    -0.11500
C1322       C  0.43417748  0.12444825  0.86535161    -0.13100
C1323       C  0.43231786  0.12162059  0.64693679    -0.11500
C1324       C  0.43437483  0.12518030  0.61538104    -0.13100
C1325       C  0.25576521  0.77811378  0.98341213    -0.11500
C1326       C  0.23000281  0.75282552  0.97505091    -0.13100
C1327       C  0.37340837  0.98836066  0.50328334    -0.11500
C1328       C  0.38815577  0.01858477  0.50119091    -0.13100
C1329       C  0.41239443  0.84079954  0.55331594    -0.11500
C1330       C  0.43558313  0.84073033  0.56853655    -0.13100
C1331       C  0.44857520  0.91684692  0.94314260    -0.11500
C1332       C  0.47053023  0.91622923  0.92666776    -0.13100
C1333       C  0.25532567  0.77657601  0.73114932    -0.11500
C1334       C  0.22948312  0.75135366  0.72286228    -0.13100
C1335       C  0.37542647  0.98630689  0.75521763    -0.11500
C1336       C  0.38988283  0.01650282  0.75241332    -0.13100
C1337       C  0.40863699  0.83512282  0.80621743    -0.11500
C1338       C  0.43178731  0.83494053  0.82125392    -0.13100
C1339       C  0.31360123  0.88150516  0.85970272    -0.11500
C1340       C  0.31233847  0.87897301  0.89136216    -0.13100
C1341       C  0.31723517  0.88037093  0.64129494    -0.11500
C1342       C  0.31848513  0.88414900  0.60978664    -0.13100
C1343       C  0.47242650  0.91426561  0.68257192    -0.11500
C1344       C  0.45046893  0.91439656  0.69951003    -0.13100
loop_ 
_geom_bond_atom_site_label_1 
_geom_bond_atom_site_label_2 
_geom_bond_distance 
_geom_bond_site_symmetry_2 
_ccdc_geom_bond_type 
O1           C16   1.255       .  A
O1           Al9   1.879       .  S
C2           O12   1.263       .  A
C2            O3   1.262       .  A
C2          C667   1.432       .  S
O3           Al5   1.909       .  S
O4            C6   1.259       .  A
O4           Al5   1.896       .  S
Al5          O13   1.884       .  S
Al5          O15   1.916       .  S
Al5          O14   1.783       .  S
C6           O19   1.266       .  A
C6          C665   1.448       .  S
O7           C17   1.262       .  A
O7           Al9   1.903       .  S
O8           C21   1.261       .  A
O8          Al18   1.900       .  S
Al9          O22   1.921       .  S
Al9          O19   1.945       .  S
Al9          O14   1.783       .  S
O10          C17   1.263       .  A
O10         Al18   1.926       .  S
O11          C20   1.262       .  A
O11         Al18   1.935       .  S
O12         Al18   1.906       .  S
O13          C20   1.256       .  A
O14         Al18   1.790       .  S
O15          C16   1.259       .  A
C16         C672   1.424       .  S
C17         C661   1.441       .  S
C20         C663   1.437       .  S
C21          O22   1.264       .  A
C21         C669   1.433       .  S
O23          C38   1.255       .  A
O23         Al31   1.881       .  S
C24          O34   1.264       .  A
C24          O25   1.263       .  A
C24         C670   1.432       .  S
O25         Al27   1.913       .  S
O26          C28   1.258       .  A
O26         Al27   1.895       .  S
Al27         O35   1.881       .  S
Al27        O709   1.914   1_554  S
Al27        O708   1.783       .  S
C28          O41   1.267       .  A
C28         C657   1.452       .  S
O29          C39   1.262       .  A
O29         Al31   1.905       .  S
O30          C43   1.263       .  A
O30         Al40   1.904       .  S
Al31         O44   1.920       .  S
Al31        O713   1.950       .  S
Al31         O36   1.782       .  S
O32          C39   1.262       .  A
O32         Al40   1.923       .  S
O33         C714   1.262       .  A
O33         Al40   1.935       .  S
O34        Al712   1.905       .  S
O35          C42   1.254       .  A
O36         Al40   1.791       .  S
O36        Al699   1.783       .  S
O37          C38   1.259       .  A
O37        Al699   1.914       .  S
C38         C659   1.425       .  S
C39         C653   1.441       .  S
Al40        O706   1.905       .  S
O41        Al703   1.950   1_554  S
C42         O705   1.262       .  A
C42         C655   1.435       .  S
C43          O44   1.264       .  A
C43         C668   1.433       .  S
O45          C60   1.256       .  A
O45         Al53   1.883       .  S
C46          O56   1.264       .  A
C46          O47   1.262       .  A
C46         C649   1.430       .  S
O47         Al49   1.908       .  S
O48          C50   1.258       .  A
O48         Al49   1.894       .  S
Al49         O57   1.879       .  S
Al49        O731   1.913       .  S
Al49        O730   1.783       .  S
C50          O63   1.267       .  A
C50         C646   1.452       .  S
O51          C61   1.264       .  A
O51         Al53   1.910       .  S
O52          C65   1.262       .  A
O52         Al62   1.902       .  S
Al53         O66   1.922       .  S
Al53        O735   1.953       .  S
Al53         O58   1.784       .  S
O54          C61   1.262       .  A
O54         Al62   1.924       .  S
O55          C64   1.261       .  A
O55         Al62   1.934   1_556  S
O56        Al734   1.905       .  S
O57         C736   1.254       .  A
O58         Al62   1.792       .  S
O58        Al721   1.783   1_554  S
O59          C60   1.259       .  A
O59        Al721   1.913   1_554  S
C60         C647   1.426       .  S
C61         C644   1.445       .  S
Al62        O728   1.905   1_554  S
O63        Al725   1.953       .  S
C64         O729   1.254       .  A
C64         C656   1.435   1_556  S
C65          O66   1.264       .  A
C65         C652   1.434       .  S
O67          C82   1.255       .  A
O67         Al75   1.880       .  S
C68          O78   1.262       .  A
C68          O69   1.261       .  A
C68         C651   1.433       .  S
O69         Al71   1.910       .  S
O70          C72   1.258       .  A
O70         Al71   1.892       .  S
Al71         O79   1.878       .  S
Al71         O81   1.921       .  S
Al71         O80   1.781       .  S
C72          O85   1.266       .  A
C72         C639   1.444       .  S
O73          C83   1.260       .  A
O73         Al75   1.895       .  S
O74          C87   1.261       .  A
O74         Al84   1.901       .  S
Al75         O88   1.916       .  S
Al75         O85   1.945       .  S
Al75         O80   1.780       .  S
O76          C83   1.266       .  A
O76         Al84   1.934       .  S
O77          C86   1.265       .  A
O77         Al84   1.944       .  S
O78         Al84   1.907       .  S
O79          C86   1.255       .  A
O80         Al84   1.787       .  S
O81          C82   1.260       .  A
C82         C642   1.425       .  S
C83         C638   1.440       .  S
C86         C664   1.437       .  S
C87          O88   1.262       .  A
C87         C650   1.431       .  S
O89         C104   1.255       .  A
O89         Al97   1.881       .  S
C90         O100   1.262       .  A
C90          O91   1.262       .  A
C90         C635   1.431       .  S
O91         Al93   1.910       .  S
O92          C94   1.258       .  A
O92         Al93   1.892       .  S
Al93        O101   1.879       .  S
Al93        O103   1.918       .  S
Al93        O102   1.782       .  S
C94         O107   1.266       .  A
C94         C640   1.444       .  S
O95         C105   1.260       .  A
O95         Al97   1.899       .  S
O96         C109   1.261       .  A
O96        Al106   1.900       .  S
Al97        O110   1.923       .  S
Al97        O107   1.945       .  S
Al97        O102   1.781       .  S
O98         C105   1.264       .  A
O98        Al106   1.928       .  S
O99         C108   1.264       .  A
O99        Al106   1.938       .  S
O100       Al106   1.904       .  S
O101        C108   1.255       .  A
O102       Al106   1.788       .  S
O103        C104   1.260       .  A
C104        C648   1.425       .  S
C105        C630   1.440       .  S
C108        C631   1.435       .  S
C109        O110   1.264       .  A
C109        C633   1.435       .  S
O111        C126   1.255       .  A
O111       Al119   1.882       .  S
C112        O122   1.264       .  A
C112        O113   1.263       .  A
C112        C634   1.434       .  S
O113       Al115   1.913       .  S
O114        C116   1.259       .  A
O114       Al115   1.897       .  S
Al115       O123   1.890       .  S
Al115       O125   1.911       .  S
Al115       O124   1.785       .  S
C116        O129   1.267       .  A
C116        C645   1.453       .  S
O117        C127   1.262       .  A
O117       Al119   1.909       .  S
O118        C131   1.263       .  A
O118       Al128   1.900       .  S
Al119       O132   1.920       .  S
Al119       O129   1.949       .  S
Al119       O124   1.784       .  S
O120        C127   1.265       .  A
O120       Al128   1.938       .  S
O121        C130   1.266       .  A
O121       Al128   1.954       .  S
O122       Al128   1.908       .  S
O123        C130   1.255       .  A
O124       Al128   1.791       .  S
O125        C126   1.258       .  A
C126        C641   1.426       .  S
C127        C625   1.451       .  S
C130        C628   1.451       .  S
C131        O132   1.264       .  A
C131        C636   1.431       .  S
O133        C148   1.257       .  A
O133       Al141   1.884       .  S
C134        O144   1.262       .  A
C134        O135   1.263       .  A
C134        C623   1.430       .  S
O135       Al137   1.912       .  S
O136        C138   1.257       .  A
O136       Al137   1.893       .  S
Al137       O145   1.880       .  S
Al137       O147   1.911       .  S
Al137       O146   1.784       .  S
C138        O151   1.266       .  A
C138        C658   1.451       .  S
O139        C149   1.264       .  A
O139       Al141   1.912       .  S
O140        C153   1.263       .  A
O140       Al150   1.905       .  S
Al141       O154   1.926       .  S
Al141       O151   1.950       .  S
Al141       O146   1.783       .  S
O142        C149   1.261       .  A
O142       Al150   1.916       .  S
O143        C152   1.260       .  A
O143       Al150   1.931       .  S
O144       Al150   1.899       .  S
O145        C152   1.253       .  A
O146       Al150   1.791       .  S
O147        C148   1.259       .  A
C148        C671   1.425       .  S
C149        C620   1.440       .  S
C152        C632   1.435       .  S
C153        O154   1.265       .  A
C153        C621   1.437       .  S
O155        C170   1.255       .  A
O155       Al163   1.885       .  S
C156        O166   1.263       .  A
C156        O157   1.260       .  A
C156        C622   1.435       .  S
O157       Al159   1.907       .  S
O158        C160   1.259       .  A
O158       Al159   1.895       .  S
Al159       O167   1.886       .  S
Al159       O169   1.915       .  S
Al159       O168   1.784       .  S
C160        O173   1.268       .  A
C160        C666   1.447       .  S
O161        C171   1.262       .  A
O161       Al163   1.904       .  S
O162        C175   1.259       .  A
O162       Al172   1.894       .  S
Al163       O176   1.920       .  S
Al163       O173   1.950       .  S
Al163       O168   1.783       .  S
O164        C171   1.270       .  A
O164       Al172   1.955       .  S
O165        C174   1.269       .  A
O165       Al172   1.962       .  S
O166       Al172   1.914       .  S
O167        C174   1.256       .  A
O168       Al172   1.787       .  S
O169        C170   1.258       .  A
C170        C660   1.426       .  S
C171        C618   1.457       .  S
C174        C627   1.451       .  S
C175        O176   1.263       .  A
C175        C624   1.431       .  S
O177        C192   1.257       .  A
O177       Al185   1.888       .  S
C178        O188   1.262       .  A
C178        O179   1.262       .  A
C178        C614   1.435       .  S
O179       Al181   1.913       .  S
O180        C182   1.259       .  A
O180       Al181   1.895       .  S
Al181       O189   1.889       .  S
Al181       O191   1.912       .  S
Al181       O190   1.785       .  S
C182        O195   1.264       .  A
C182        C615   1.442       .  S
O183        C193   1.261       .  A
O183       Al185   1.904       .  S
O184        C197   1.260       .  A
O184       Al194   1.896       .  S
Al185       O198   1.916       .  S
Al185       O195   1.936       .  S
Al185       O190   1.786       .  S
O186        C193   1.264       .  A
O186       Al194   1.934       .  S
O187        C196   1.265       .  A
O187       Al194   1.945       .  S
O188       Al194   1.905       .  S
O189        C196   1.256       .  A
O190       Al194   1.789       .  S
O191        C192   1.259       .  A
C192        C610   1.427       .  S
C193        C605   1.446       .  S
C196        C607   1.446       .  S
C197        O198   1.263       .  A
C197        C611   1.430       .  S
O199        C214   1.255       .  A
O199       Al207   1.878       .  S
C200        O210   1.263       .  A
C200        O201   1.263       .  A
C200        C612   1.429       .  S
O201       Al203   1.910       .  S
O202        C204   1.256       .  A
O202       Al203   1.890       .  S
Al203       O211   1.880       .  S
Al203       O213   1.919       .  S
Al203       O212   1.780       .  S
C204        O217   1.266       .  A
C204        C603   1.448       .  S
O205        C215   1.263       .  A
O205       Al207   1.907       .  S
O206        C219   1.263       .  A
O206       Al216   1.906       .  S
Al207       O220   1.922       .  S
Al207       O217   1.950       .  S
Al207       O212   1.782       .  S
O208        C215   1.265       .  A
O208       Al216   1.934       .  S
O209        C218   1.264       .  A
O209       Al216   1.946       .  S
O210       Al216   1.903       .  S
O211        C218   1.254       .  A
O212       Al216   1.787       .  S
O213        C214   1.261       .  A
C214        C602   1.423       .  S
C215        C598   1.445       .  S
C218        C599   1.441       .  S
C219        O220   1.264       .  A
C219       C1285   1.435       .  S
O221        C908   1.257       .  A
O221       Al901   1.881       .  S
C222        O232   1.261       .  A
C222        O223   1.261       .  A
C222        C596   1.434       .  S
O223       Al225   1.911       .  S
O224        C226   1.256       .  A
O224       Al225   1.890       .  S
Al225       O233   1.873       .  S
Al225       O235   1.922       .  S
Al225       O234   1.781       .  S
C226        O239   1.265       .  A
C226        C616   1.441       .  S
O227        C237   1.262       .  A
O227       Al229   1.896       .  S
O228        C241   1.260       .  A
O228       Al910   1.900       .  S
Al229       O239   1.945       .  S
Al229       O893   1.881       .  S
Al229       O914   1.916   1_554  S
Al229       O234   1.782       .  S
O230        C237   1.270       .  A
O230       Al238   1.949       .  S
O231        C240   1.269       .  A
O231       Al238   1.957       .  S
O232       Al238   1.904       .  S
O233        C240   1.253       .  A
O234       Al238   1.784       .  S
O235        C236   1.262       .  A
C236        O893   1.257       .  A
C236       C1273   1.424   1_554  S
C237        C643   1.445       .  S
Al238       O900   1.900       .  S
C240        C592   1.444       .  S
C241        O242   1.261       .  A
C241        C594   1.432       .  S
O242       Al901   1.916       .  S
O243        C258   1.253       .  A
O243       Al251   1.879       .  S
C244        O254   1.265       .  A
C244        O245   1.263       .  A
C244        C593   1.431       .  S
O245       Al247   1.912       .  S
O246        C248   1.260       .  A
O246       Al247   1.899       .  S
Al247       O255   1.890       .  S
Al247       O257   1.913       .  S
Al247       O256   1.783       .  S
C248        O261   1.266       .  A
C248        C604   1.449       .  S
O249        C259   1.259       .  A
O249       Al251   1.903       .  S
O250        C263   1.263       .  A
O250       Al260   1.903       .  S
Al251       O264   1.921       .  S
Al251       O261   1.940       .  S
Al251       O256   1.781       .  S
O252        C259   1.259       .  A
O252       Al260   1.917       .  S
O253        C262   1.259       .  A
O253       Al260   1.923       .  S
O254       Al260   1.907       .  S
O255        C262   1.257       .  A
O256       Al260   1.792       .  S
O257        C258   1.258       .  A
C258        C609   1.426       .  S
C259        C637   1.440       .  S
C262        C589   1.432       .  S
C263        O264   1.265       .  A
C263        C595   1.433       .  S
O265        C280   1.274       .  A
O265       Al273   1.952       .  S
C266        O276   1.270       .  A
C266        O267   1.261       .  A
C266        C584   1.449       .  S
O267       Al269   1.907       .  S
O268        C270   1.271       .  A
O268       Al269   1.953       .  S
Al269       O277   1.962       .  S
Al269       O279   1.904       .  S
Al269       O278   1.769       .  S
C270        O283   1.258       .  A
C270        C619   1.442       .  S
O271        C281   1.270       .  A
O271       Al273   1.978       .  S
O272        C285   1.277       .  A
O272       Al282   1.995       .  S
Al273       O286   1.872       .  S
Al273       O283   1.890       .  S
Al273       O278   1.779       .  S
O274        C281   1.241       .  A
O274       Al282   1.857       .  S
O275        C284   1.260       .  A
O275       Al282   1.887       .  S
O276       Al282   1.947       .  S
O277        C284   1.271       .  A
O278       Al282   1.758       .  S
O279        C280   1.264       .  A
C280        C581   1.450       .  S
C281        C587   1.426       .  S
C284        C608   1.445       .  S
C285        O286   1.254       .  A
C285        C585   1.447       .  S
O287        C302   1.257       .  A
O287       Al295   1.896       .  S
C288        O298   1.270       .  A
C288        O289   1.259       .  A
C288       C1255   1.447       .  S
O289       Al291   1.899       .  S
O290        C292   1.258       .  A
O290       Al291   1.899       .  S
Al291       O299   1.884       .  S
Al291       O301   1.896       .  S
Al291       O300   1.797       .  S
C292        O305   1.263       .  A
C292        C577   1.453       .  S
O293        C303   1.265       .  A
O293       Al295   1.921       .  S
O294        C307   1.268       .  A
O294       Al304   1.932       .  S
Al295       O308   1.910       .  S
Al295       O305   1.938       .  S
Al295       O300   1.797       .  S
O296        C303   1.261       .  A
O296       Al304   1.923       .  S
O297        C306   1.259       .  A
O297       Al304   1.933       .  S
O298       Al304   1.936       .  S
O299        C306   1.252       .  A
O300       Al304   1.800       .  S
O301        C302   1.255       .  A
C302        C579   1.430       .  S
C303        C617   1.456       .  S
C306        C600   1.441       .  S
C307        O308   1.261       .  A
C307        C582   1.449       .  S
O309        C324   1.245       .  A
O309       Al317   1.859       .  S
C310        O311   1.269       .  A
C310        O992   1.264       .  A
C310        C573   1.444       .  S
O311       Al985   1.941       .  S
O312        C986   1.258       .  A
O312       Al985   1.886       .  S
Al313       O321   1.907       .  S
Al313       O323   1.961       .  S
Al313       O983   1.941   1_554  S
Al313       O984   1.886   1_554  S
Al313       O322   1.776       .  S
C314        O327   1.274       .  A
C314        O984   1.258   1_554  A
C314       C1250   1.451   1_554  S
O315        C325   1.255       .  A
O315       Al317   1.873       .  S
O316        C329   1.262       .  A
O316       Al326   1.898       .  S
Al317       O330   1.947       .  S
Al317       O327   1.983       .  S
Al317       O322   1.769       .  S
O318        C325   1.266       .  A
O318       Al326   1.939       .  S
O319        C328   1.268       .  A
O319       Al326   1.946       .  S
O320        C982   1.264       .  A
O320       Al326   1.906   1_556  S
O321        C328   1.265       .  A
O322       Al326   1.775       .  S
O323        C324   1.267       .  A
C324        C588   1.431       .  S
C325        C572   1.429       .  S
C328        C591   1.446       .  S
C329        O330   1.270       .  A
C329        C575   1.442       .  S
O331        C346   1.253       .  A
O331       Al339   1.870       .  S
C332        O342   1.265       .  A
C332        O333   1.265       .  A
C332        C576   1.440       .  S
O333       Al335   1.925       .  S
O334        C336   1.251       .  A
O334       Al335   1.869       .  S
Al335       O343   1.862       .  S
Al335       O345   1.942       .  S
Al335       O344   1.776       .  S
C336        O349   1.273       .  A
C336        C586   1.446       .  S
O337        C347   1.267       .  A
O337       Al339   1.918       .  S
O338        C351   1.265       .  A
O338       Al348   1.911       .  S
Al339       O352   1.938       .  S
Al339       O349   1.977       .  S
Al339       O344   1.773       .  S
O340        C347   1.266       .  A
O340       Al348   1.934       .  S
O341        C350   1.266       .  A
O341       Al348   1.949       .  S
O342       Al348   1.914       .  S
O343        C350   1.253       .  A
O344       Al348   1.777       .  S
O345        C346   1.264       .  A
C346        C580   1.425       .  S
C347        C569   1.451       .  S
C350        C590   1.429       .  S
C351        O352   1.269       .  A
C351        C574   1.444       .  S
O353        C368   1.256       .  A
O353       Al361   1.880       .  S
C354        O364   1.262       .  A
C354        O355   1.264       .  A
C354        C567   1.433       .  S
O355       Al357   1.916       .  S
O356        C358   1.256       .  A
O356       Al357   1.890       .  S
Al357       O365   1.878       .  S
Al357       O367   1.917       .  S
Al357       O366   1.781       .  S
C358        O371   1.264       .  A
C358        C564   1.445       .  S
O359        C369   1.262       .  A
O359       Al361   1.901       .  S
O360        C373   1.264       .  A
O360       Al370   1.907       .  S
Al361       O374   1.919       .  S
Al361       O371   1.943       .  S
Al361       O366   1.781       .  S
O362        C369   1.259       .  A
O362       Al370   1.908       .  S
O363        C372   1.260       .  A
O363       Al370   1.927       .  S
O364       Al370   1.902       .  S
O365        C372   1.253       .  A
O366       Al370   1.790       .  S
O367        C368   1.261       .  A
C368        C562   1.425       .  S
C369        C571   1.429       .  S
C372        C560   1.431       .  S
C373        O374   1.264       .  A
C373       C1237   1.433   1_554  S
O375        C390   1.256       .  A
O375       Al383   1.886       .  S
C376        O386   1.264       .  A
C376        O377   1.260       .  A
C376        C566   1.433       .  S
O377       Al379   1.905       .  S
O378        C380   1.258       .  A
O378       Al379   1.892       .  S
Al379       O387   1.880       .  S
Al379       O389   1.912       .  S
Al379       O388   1.783       .  S
C380        O393   1.267       .  A
C380        C558   1.447       .  S
O381        C391   1.263       .  A
O381       Al383   1.908       .  S
O382        C395   1.260       .  A
O382       Al392   1.898       .  S
Al383       O396   1.922       .  S
Al383       O393   1.949       .  S
Al383       O388   1.785       .  S
O384        C391   1.267       .  A
O384       Al392   1.942       .  S
O385        C394   1.266       .  A
O385       Al392   1.950       .  S
O386       Al392   1.911       .  S
O387        C394   1.255       .  A
O388       Al392   1.788       .  S
O389        C390   1.258       .  A
C390        C555   1.425       .  S
C391        C570   1.451       .  S
C394        C553   1.443       .  S
C395        O396   1.263       .  A
C395        C568   1.433       .  S
O397        C412   1.255       .  A
O397       Al405   1.878       .  S
C398        O408   1.263       .  A
C398        O399   1.263       .  A
C398        C551   1.432       .  S
O399       Al401   1.915       .  S
O400        C402   1.259       .  A
O400       Al401   1.897       .  S
Al401       O409   1.888       .  S
Al401       O411   1.915       .  S
Al401       O410   1.783       .  S
C402        O415   1.265       .  A
C402        C563   1.446       .  S
O403        C413   1.259       .  A
O403       Al405   1.899       .  S
O404        C417   1.262       .  A
O404       Al414   1.900       .  S
Al405       O418   1.922       .  S
Al405       O415   1.939       .  S
Al405       O410   1.781       .  S
O406        C413   1.263       .  A
O406       Al414   1.931       .  S
O407        C416   1.263       .  A
O407       Al414   1.939       .  S
O408       Al414   1.903       .  S
O409        C416   1.256       .  A
O410       Al414   1.789       .  S
O411        C412   1.259       .  A
C412        C556   1.424       .  S
C413        C662   1.441       .  S
C416        C548   1.441       .  S
C417        O418   1.264       .  A
C417        C550   1.433       .  S
O419       C1106   1.255   1_554  A
O419      Al1099   1.878   1_554  S
C420        O430   1.264       .  A
C420        O421   1.263       .  A
C420        C549   1.432       .  S
O421       Al423   1.912       .  S
O422        C424   1.259       .  A
O422       Al423   1.898       .  S
Al423       O431   1.889       .  S
Al423       O433   1.916       .  S
Al423       O432   1.783       .  S
C424        O437   1.265       .  A
C424        C557   1.447       .  S
O425        C435   1.259       .  A
O425       Al427   1.898       .  S
O426        C439   1.262       .  A
O426      Al1108   1.900   1_554  S
Al427       O437   1.940       .  S
Al427      O1091   1.878       .  S
Al427      O1112   1.922       .  S
Al427       O432   1.783       .  S
O428        C435   1.264       .  A
O428       Al436   1.934       .  S
O429        C438   1.263       .  A
O429       Al436   1.941       .  S
O430       Al436   1.906       .  S
O431        C438   1.256       .  A
O432       Al436   1.790       .  S
O433        C434   1.259       .  A
C434       O1091   1.255       .  A
C434       C1233   1.425       .  S
C435        C654   1.442       .  S
Al436      O1098   1.900       .  S
C438        C545   1.443       .  S
C439        O440   1.264       .  A
C439        C552   1.433       .  S
O440      Al1099   1.922   1_554  S
O441        C456   1.256       .  A
O441       Al449   1.882       .  S
C442        O452   1.262       .  A
C442        O443   1.262       .  A
C442        C537   1.431       .  S
O443       Al445   1.909       .  S
O444        C446   1.258       .  A
O444       Al445   1.893       .  S
Al445       O453   1.876       .  S
Al445       O455   1.914       .  S
Al445       O454   1.782       .  S
C446        O459   1.267       .  A
C446        C541   1.449       .  S
O447        C457   1.263       .  A
O447       Al449   1.905       .  S
O448        C461   1.261       .  A
O448       Al458   1.899       .  S
Al449       O462   1.922       .  S
Al449       O459   1.951       .  S
Al449       O454   1.782       .  S
O450        C457   1.266       .  A
O450       Al458   1.936       .  S
O451        C460   1.265       .  A
O451       Al458   1.946       .  S
O452       Al458   1.904       .  S
O453        C460   1.254       .  A
O454       Al458   1.788       .  S
O455        C456   1.259       .  A
C456        C543   1.423       .  S
C457        C606   1.446       .  S
C460        C547   1.439       .  S
C461        O462   1.263       .  A
C461        C539   1.433       .  S
O463        C478   1.256       .  A
O463       Al471   1.883       .  S
C464        O474   1.262       .  A
C464        O465   1.262       .  A
C464        C540   1.433       .  S
O465      Al1139   1.911   1_554  S
O466       C1140   1.258   1_554  A
O466      Al1139   1.892   1_554  S
Al467       O475   1.879       .  S
Al467       O477   1.914       .  S
Al467      O1137   1.911       .  S
Al467      O1138   1.892       .  S
Al467       O476   1.783       .  S
C468        O481   1.265       .  A
C468       O1138   1.258       .  A
C468       C1206   1.444       .  S
O469        C479   1.261       .  A
O469       Al471   1.900       .  S
O470        C483   1.261       .  A
O470       Al480   1.898       .  S
Al471       O484   1.920       .  S
Al471       O481   1.943       .  S
Al471       O476   1.782       .  S
O472        C479   1.266       .  A
O472       Al480   1.938       .  S
O473        C482   1.266       .  A
O473       Al480   1.950       .  S
O474      Al1152   1.904   1_554  S
O475        C482   1.254       .  A
O476       Al480   1.788       .  S
O477        C478   1.259       .  A
C478        C535   1.425       .  S
C479        C597   1.445       .  S
Al480      O1146   1.904       .  S
C482        C546   1.442       .  S
C483        O484   1.263       .  A
C483        C538   1.432       .  S
O485        C500   1.255       .  A
O485       Al493   1.881       .  S
C486        O496   1.263       .  A
C486        O487   1.261       .  A
C486       C1201   1.431   1_554  S
O487       Al489   1.907       .  S
O488        C490   1.259       .  A
O488       Al489   1.892       .  S
Al489       O497   1.877       .  S
Al489       O499   1.915       .  S
Al489       O498   1.782       .  S
C490        O503   1.267       .  A
C490        C533   1.444       .  S
O491        C501   1.261       .  A
O491       Al493   1.898       .  S
O492        C505   1.260       .  A
O492       Al502   1.899       .  S
Al493       O506   1.921       .  S
Al493       O503   1.947       .  S
Al493       O498   1.781       .  S
O494        C501   1.264       .  A
O494       Al502   1.927       .  S
O495        C504   1.263       .  A
O495       Al502   1.934       .  S
O496       Al502   1.908       .  S
O497        C504   1.255       .  A
O498       Al502   1.787       .  S
O499        C500   1.259       .  A
C500        C544   1.423       .  S
C501        C629   1.440       .  S
C504        C559   1.431       .  S
C505        O506   1.263       .  A
C505        C532   1.434       .  S
O507        C522   1.255       .  A
O507       Al515   1.879       .  S
C508        O518   1.264       .  A
C508        O509   1.263       .  A
C508        C531   1.433       .  S
O509       Al511   1.912       .  S
O510        C512   1.258       .  A
O510       Al511   1.896       .  S
Al511       O519   1.888       .  S
Al511       O521   1.915       .  S
Al511       O520   1.785       .  S
C512        O525   1.266       .  A
C512        C542   1.449       .  S
O513        C523   1.262       .  A
O513       Al515   1.907       .  S
O514        C527   1.264       .  A
O514       Al524   1.905       .  S
Al515       O528   1.916       .  S
Al515       O525   1.945       .  S
Al515       O520   1.782       .  S
O516        C523   1.265       .  A
O516       Al524   1.937       .  S
O517        C526   1.264       .  A
O517       Al524   1.946       .  S
O518       Al524   1.906       .  S
O519        C526   1.256       .  A
O520       Al524   1.789       .  S
O521        C522   1.259       .  A
C522        C536   1.424       .  S
C523        C626   1.450       .  S
C526        C554   1.444       .  S
C527        O528   1.263       .  A
C527        C530   1.432       .  S
C529       C1158   1.431       .  S
C529        C530   1.204       .  T
C531        C532   1.205       .  T
C533        C534   1.211       .  T
C534       C1140   1.444   1_554  S
C535        C536   1.199       .  T
C537        C538   1.204       .  T
C539        C540   1.205       .  T
C541        C542   1.214       .  T
C543        C544   1.198       .  T
C545        C546   1.210   1_455  T
C547        C548   1.209   1_655  T
C549        C550   1.205       .  T
C551        C552   1.204       .  T
C553        C554   1.211   1_455  T
C555        C556   1.199       .  T
C557        C558   1.213       .  T
C559        C560   1.203   1_655  T
C561       C1106   1.425   1_554  S
C561        C562   1.200       .  T
C563        C564   1.212       .  T
C565       C1045   1.433       .  S
C565        C566   1.205       .  T
C567        C568   1.205       .  T
C569        C570   1.216       .  T
C571        C572   1.203       .  T
C573        C574   1.211       .  T
C575        C576   1.209       .  T
C577        C578   1.216       .  T
C578        C986   1.451       .  S
C579        C580   1.202       .  T
C581        C582   1.214       .  T
C583        C960   1.447   1_554  S
C583        C584   1.214       .  T
C585        C586   1.214       .  T
C587        C588   1.204       .  T
C589        C590   1.203       .  T
C591        C592   1.212       .  T
C593        C594   1.204       .  T
C595        C596   1.205       .  T
C597        C598   1.212       .  T
C599        C600   1.209       .  T
C601        C908   1.424       .  S
C601        C602   1.199       .  T
C603        C604   1.214       .  T
C605        C606   1.212       .  T
C607        C608   1.212       .  T
C609        C610   1.201       .  T
C611        C612   1.203       .  T
C613        C891   1.435   1_554  S
C613        C614   1.206       .  T
C615        C616   1.210       .  T
C617        C618   1.219       .  T
C619        C620   1.210       .  T
C621        C622   1.206       .  T
C623       C1296   1.203   1_554  T
C624       C1295   1.203       .  T
C625        C626   1.216       .  T
C627        C628   1.215   1_565  T
C629        C630   1.209       .  T
C631        C632   1.206   1_545  T
C633       C1306   1.206   1_554  T
C634       C1305   1.206       .  T
C635        C636   1.203       .  T
C637        C638   1.209       .  T
C639        C640   1.211       .  T
C641        C642   1.200       .  T
C643        C644   1.212       .  T
C645        C646   1.217       .  T
C647        C648   1.200       .  T
C649        C650   1.203       .  T
C651        C652   1.205       .  T
C653        C654   1.210       .  T
C655        C656   1.206   1_565  T
C657        C658   1.216       .  T
C659        C660   1.200       .  T
C661        C662   1.210       .  T
C663        C664   1.207   1_565  T
C665        C666   1.213       .  T
C667        C668   1.204       .  T
C669        C670   1.204       .  T
C671        C672   1.199       .  T
O673        C688   1.255       .  A
O673       Al681   1.879       .  S
C674        O684   1.263       .  A
C674        O675   1.262       .  A
C674       C1339   1.432       .  S
O675       Al677   1.909       .  S
O676        C678   1.259       .  A
O676       Al677   1.896       .  S
Al677       O685   1.884       .  S
Al677       O687   1.916       .  S
Al677       O686   1.783       .  S
C678        O691   1.266       .  A
C678       C1337   1.448       .  S
O679        C689   1.262       .  A
O679       Al681   1.903       .  S
O680        C693   1.261       .  A
O680       Al690   1.900       .  S
Al681       O694   1.921       .  S
Al681       O691   1.945       .  S
Al681       O686   1.783       .  S
O682        C689   1.263       .  A
O682       Al690   1.926       .  S
O683        C692   1.262       .  A
O683       Al690   1.935       .  S
O684       Al690   1.906       .  S
O685        C692   1.256       .  A
O686       Al690   1.790       .  S
O687        C688   1.259       .  A
C688       C1344   1.424       .  S
C689       C1333   1.441       .  S
C692       C1335   1.437       .  S
C693        O694   1.264       .  A
C693       C1341   1.433       .  S
O695        C710   1.255       .  A
O695       Al703   1.881       .  S
C696        O706   1.264       .  A
C696        O697   1.263       .  A
C696       C1342   1.432       .  S
O697       Al699   1.913       .  S
O698        C700   1.258       .  A
O698       Al699   1.895       .  S
Al699       O707   1.881       .  S
C700        O713   1.267       .  A
C700       C1329   1.452       .  S
O701        C711   1.262       .  A
O701       Al703   1.905       .  S
O702        C715   1.263       .  A
O702       Al712   1.904   1_556  S
Al703       O716   1.920       .  S
Al703       O708   1.782   1_556  S
O704        C711   1.262       .  A
O704       Al712   1.923   1_556  S
O705       Al712   1.935       .  S
O707        C714   1.254       .  A
O708       Al712   1.791       .  S
O709        C710   1.259       .  A
C710       C1331   1.425       .  S
C711       C1325   1.441       .  S
C714       C1327   1.435       .  S
C715        O716   1.264       .  A
C715       C1340   1.433       .  S
O717        C732   1.256       .  A
O717       Al725   1.883       .  S
C718        O728   1.264       .  A
C718        O719   1.262       .  A
C718       C1321   1.430       .  S
O719       Al721   1.908       .  S
O720        C722   1.258       .  A
O720       Al721   1.894       .  S
Al721       O729   1.879       .  S
C722        O735   1.267   1_556  A
C722       C1318   1.452       .  S
O723        C733   1.264       .  A
O723       Al725   1.910       .  S
O724        C737   1.262       .  A
O724       Al734   1.902       .  S
Al725       O738   1.922       .  S
Al725       O730   1.784       .  S
O726        C733   1.262       .  A
O726       Al734   1.924       .  S
O727        C736   1.261       .  A
O727       Al734   1.934       .  S
O730       Al734   1.792       .  S
O731        C732   1.259       .  A
C732       C1319   1.426       .  S
C733       C1316   1.445       .  S
C736       C1328   1.435       .  S
C737        O738   1.264       .  A
C737       C1324   1.434       .  S
O739        C754   1.255       .  A
O739       Al747   1.880       .  S
C740        O750   1.262       .  A
C740        O741   1.261       .  A
C740       C1323   1.433       .  S
O741       Al743   1.910       .  S
O742        C744   1.258       .  A
O742       Al743   1.892       .  S
Al743       O751   1.878       .  S
Al743       O753   1.921       .  S
Al743       O752   1.781       .  S
C744        O757   1.266       .  A
C744       C1311   1.444       .  S
O745        C755   1.260       .  A
O745       Al747   1.895       .  S
O746        C759   1.261       .  A
O746       Al756   1.901       .  S
Al747       O760   1.916       .  S
Al747       O757   1.945       .  S
Al747       O752   1.780       .  S
O748        C755   1.266       .  A
O748       Al756   1.934       .  S
O749        C758   1.265       .  A
O749       Al756   1.944       .  S
O750       Al756   1.907       .  S
O751        C758   1.255       .  A
O752       Al756   1.787       .  S
O753        C754   1.260       .  A
C754       C1314   1.425       .  S
C755       C1310   1.440       .  S
C758       C1336   1.437       .  S
C759        O760   1.262       .  A
C759       C1322   1.431       .  S
O761        C776   1.255       .  A
O761       Al769   1.881       .  S
C762        O772   1.262       .  A
C762        O763   1.262       .  A
C762       C1307   1.431       .  S
O763       Al765   1.910       .  S
O764        C766   1.258       .  A
O764       Al765   1.892       .  S
Al765       O773   1.879       .  S
Al765       O775   1.918       .  S
Al765       O774   1.782       .  S
C766        O779   1.266       .  A
C766       C1312   1.444       .  S
O767        C777   1.260       .  A
O767       Al769   1.899       .  S
O768        C781   1.261       .  A
O768       Al778   1.900       .  S
Al769       O782   1.923       .  S
Al769       O779   1.945       .  S
Al769       O774   1.781       .  S
O770        C777   1.264       .  A
O770       Al778   1.928       .  S
O771        C780   1.264       .  A
O771       Al778   1.938       .  S
O772       Al778   1.904       .  S
O773        C780   1.255       .  A
O774       Al778   1.788       .  S
O775        C776   1.260       .  A
C776       C1320   1.425       .  S
C777       C1302   1.440       .  S
C780       C1303   1.435       .  S
C781        O782   1.264       .  A
C781       C1305   1.435       .  S
O783        C798   1.255       .  A
O783       Al791   1.882       .  S
C784        O794   1.264       .  A
C784        O785   1.263       .  A
C784       C1306   1.434       .  S
O785       Al787   1.913       .  S
O786        C788   1.259       .  A
O786       Al787   1.897       .  S
Al787       O795   1.890       .  S
Al787       O797   1.911       .  S
Al787       O796   1.785       .  S
C788        O801   1.267       .  A
C788       C1317   1.453       .  S
O789        C799   1.262       .  A
O789       Al791   1.909       .  S
O790        C803   1.263       .  A
O790       Al800   1.900       .  S
Al791       O804   1.920       .  S
Al791       O801   1.949       .  S
Al791       O796   1.784       .  S
O792        C799   1.265       .  A
O792       Al800   1.938       .  S
O793        C802   1.266       .  A
O793       Al800   1.954       .  S
O794       Al800   1.908       .  S
O795        C802   1.255       .  A
O796       Al800   1.791       .  S
O797        C798   1.258       .  A
C798       C1313   1.426       .  S
C799       C1297   1.451       .  S
C802       C1300   1.451       .  S
C803        O804   1.264       .  A
C803       C1308   1.431       .  S
O805        C820   1.257       .  A
O805       Al813   1.884       .  S
C806        O816   1.262       .  A
C806        O807   1.263       .  A
C806       C1295   1.430       .  S
O807       Al809   1.912       .  S
O808        C810   1.257       .  A
O808       Al809   1.893       .  S
Al809       O817   1.880       .  S
Al809       O819   1.911       .  S
Al809       O818   1.784       .  S
C810        O823   1.266       .  A
C810       C1330   1.451       .  S
O811        C821   1.264       .  A
O811       Al813   1.912       .  S
O812        C825   1.263       .  A
O812       Al822   1.905       .  S
Al813       O826   1.926       .  S
Al813       O823   1.950       .  S
Al813       O818   1.783       .  S
O814        C821   1.261       .  A
O814       Al822   1.916       .  S
O815        C824   1.260       .  A
O815       Al822   1.931       .  S
O816       Al822   1.899       .  S
O817        C824   1.253       .  A
O818       Al822   1.791       .  S
O819        C820   1.259       .  A
C820       C1343   1.425       .  S
C821       C1292   1.440       .  S
C824       C1304   1.435       .  S
C825        O826   1.265       .  A
C825       C1293   1.437       .  S
O827        C842   1.255       .  A
O827       Al835   1.885       .  S
C828        O838   1.263       .  A
C828        O829   1.260       .  A
C828       C1294   1.435       .  S
O829       Al831   1.907       .  S
O830        C832   1.259       .  A
O830       Al831   1.895       .  S
Al831       O839   1.886       .  S
Al831       O841   1.915       .  S
Al831       O840   1.784       .  S
C832        O845   1.268       .  A
C832       C1338   1.447       .  S
O833        C843   1.262       .  A
O833       Al835   1.904       .  S
O834        C847   1.259       .  A
O834       Al844   1.894       .  S
Al835       O848   1.920       .  S
Al835       O845   1.950       .  S
Al835       O840   1.783       .  S
O836        C843   1.270       .  A
O836       Al844   1.955       .  S
O837        C846   1.269       .  A
O837       Al844   1.962       .  S
O838       Al844   1.914       .  S
O839        C846   1.256       .  A
O840       Al844   1.787       .  S
O841        C842   1.258       .  A
C842       C1332   1.426       .  S
C843       C1290   1.457       .  S
C846       C1299   1.451       .  S
C847        O848   1.263       .  A
C847       C1296   1.431       .  S
O849        C864   1.257       .  A
O849       Al857   1.888       .  S
C850        O860   1.262       .  A
C850        O851   1.262       .  A
C850       C1286   1.435       .  S
O851       Al853   1.913       .  S
O852        C854   1.259       .  A
O852       Al853   1.895       .  S
Al853       O861   1.889       .  S
Al853       O863   1.912       .  S
Al853       O862   1.785       .  S
C854        O867   1.264       .  A
C854       C1287   1.442       .  S
O855        C865   1.261       .  A
O855       Al857   1.904       .  S
O856        C869   1.260       .  A
O856       Al866   1.896       .  S
Al857       O870   1.916       .  S
Al857       O867   1.936       .  S
Al857       O862   1.786       .  S
O858        C865   1.264       .  A
O858       Al866   1.934       .  S
O859        C868   1.265       .  A
O859       Al866   1.945       .  S
O860       Al866   1.905       .  S
O861        C868   1.256       .  A
O862       Al866   1.789       .  S
O863        C864   1.259       .  A
C864       C1282   1.427       .  S
C865       C1277   1.446       .  S
C868       C1279   1.446       .  S
C869        O870   1.263       .  A
C869       C1283   1.430       .  S
O871        C886   1.255       .  A
O871       Al879   1.878       .  S
C872        O882   1.263       .  A
C872        O873   1.263       .  A
C872       C1284   1.429       .  S
O873       Al875   1.910       .  S
O874        C876   1.256       .  A
O874       Al875   1.890       .  S
Al875       O883   1.880       .  S
Al875       O885   1.919       .  S
Al875       O884   1.780       .  S
C876        O889   1.266       .  A
C876       C1275   1.448       .  S
O877        C887   1.263       .  A
O877       Al879   1.907       .  S
O878        C891   1.263       .  A
O878       Al888   1.906       .  S
Al879       O892   1.922       .  S
Al879       O889   1.950       .  S
Al879       O884   1.782       .  S
O880        C887   1.265       .  A
O880       Al888   1.934       .  S
O881        C890   1.264       .  A
O881       Al888   1.946       .  S
O882       Al888   1.903       .  S
O883        C890   1.254       .  A
O884       Al888   1.787       .  S
O885        C886   1.261       .  A
C886       C1274   1.423       .  S
C887       C1270   1.445       .  S
C890       C1271   1.441       .  S
C891        O892   1.264       .  A
C894        O904   1.261       .  A
C894        O895   1.261       .  A
C894       C1268   1.434       .  S
O895       Al897   1.911       .  S
O896        C898   1.256       .  A
O896       Al897   1.890       .  S
Al897       O905   1.873       .  S
Al897       O907   1.922       .  S
Al897       O906   1.781       .  S
C898        O911   1.265       .  A
C898       C1288   1.441       .  S
O899        C909   1.262       .  A
O899       Al901   1.896       .  S
O900        C913   1.260   1_554  A
Al901       O911   1.945       .  S
Al901       O906   1.782       .  S
O902        C909   1.270       .  A
O902       Al910   1.949       .  S
O903        C912   1.269       .  A
O903       Al910   1.957       .  S
O904       Al910   1.904       .  S
O905        C912   1.253       .  A
O906       Al910   1.784       .  S
O907        C908   1.262       .  A
C909       C1315   1.445       .  S
C912       C1264   1.444       .  S
C913        O914   1.261       .  A
C913       C1266   1.432       .  S
O915        C930   1.253       .  A
O915       Al923   1.879       .  S
C916        O926   1.265       .  A
C916        O917   1.263       .  A
C916       C1265   1.431       .  S
O917       Al919   1.912       .  S
O918        C920   1.260       .  A
O918       Al919   1.899       .  S
Al919       O927   1.890       .  S
Al919       O929   1.913       .  S
Al919       O928   1.783       .  S
C920        O933   1.266       .  A
C920       C1276   1.449       .  S
O921        C931   1.259       .  A
O921       Al923   1.903       .  S
O922        C935   1.263       .  A
O922       Al932   1.903       .  S
Al923       O936   1.921       .  S
Al923       O933   1.940       .  S
Al923       O928   1.781       .  S
O924        C931   1.259       .  A
O924       Al932   1.917       .  S
O925        C934   1.259       .  A
O925       Al932   1.923       .  S
O926       Al932   1.907       .  S
O927        C934   1.257       .  A
O928       Al932   1.792       .  S
O929        C930   1.258       .  A
C930       C1281   1.426       .  S
C931       C1309   1.440       .  S
C934       C1261   1.432       .  S
C935        O936   1.265       .  A
C935       C1267   1.433       .  S
O937        C952   1.274       .  A
O937       Al945   1.952       .  S
C938        O948   1.270       .  A
C938        O939   1.261       .  A
C938       C1256   1.449       .  S
O939       Al941   1.907       .  S
O940        C942   1.271       .  A
O940       Al941   1.953       .  S
Al941       O949   1.962       .  S
Al941       O951   1.904       .  S
Al941       O950   1.769       .  S
C942        O955   1.258       .  A
C942       C1291   1.442       .  S
O943        C953   1.270       .  A
O943       Al945   1.978       .  S
O944        C957   1.277       .  A
O944       Al954   1.995       .  S
Al945       O958   1.872       .  S
Al945       O955   1.890       .  S
Al945       O950   1.779       .  S
O946        C953   1.241       .  A
O946       Al954   1.857       .  S
O947        C956   1.260       .  A
O947       Al954   1.887       .  S
O948       Al954   1.947       .  S
O949        C956   1.271       .  A
O950       Al954   1.758       .  S
O951        C952   1.264       .  A
C952       C1253   1.450       .  S
C953       C1259   1.426       .  S
C956       C1280   1.445       .  S
C957        O958   1.254       .  A
C957       C1257   1.447       .  S
O959        C974   1.257       .  A
O959       Al967   1.896       .  S
C960        O970   1.270       .  A
C960        O961   1.259       .  A
O961       Al963   1.899       .  S
O962        C964   1.258       .  A
O962       Al963   1.899       .  S
Al963       O971   1.884       .  S
Al963       O973   1.896       .  S
Al963       O972   1.797       .  S
C964        O977   1.263       .  A
C964       C1249   1.453       .  S
O965        C975   1.265       .  A
O965       Al967   1.921       .  S
O966        C979   1.268       .  A
O966       Al976   1.932       .  S
Al967       O980   1.910       .  S
Al967       O977   1.938       .  S
Al967       O972   1.797       .  S
O968        C975   1.261       .  A
O968       Al976   1.923       .  S
O969        C978   1.259       .  A
O969       Al976   1.933       .  S
O970       Al976   1.936       .  S
O971        C978   1.252       .  A
O972       Al976   1.800       .  S
O973        C974   1.255       .  A
C974       C1251   1.430       .  S
C975       C1289   1.456       .  S
C978       C1272   1.441       .  S
C979        O980   1.261       .  A
C979       C1254   1.449       .  S
O981        C996   1.245       .  A
O981       Al989   1.859       .  S
C982        O983   1.269       .  A
C982       C1245   1.444       .  S
Al985       O993   1.907       .  S
Al985       O995   1.961       .  S
Al985       O994   1.776       .  S
C986        O999   1.274       .  A
O987        C997   1.255       .  A
O987       Al989   1.873       .  S
O988       C1001   1.262       .  A
O988       Al998   1.898       .  S
Al989      O1002   1.947       .  S
Al989       O999   1.983       .  S
Al989       O994   1.769       .  S
O990        C997   1.266       .  A
O990       Al998   1.939       .  S
O991       C1000   1.268       .  A
O991       Al998   1.946       .  S
O992       Al998   1.906       .  S
O993       C1000   1.265       .  A
O994       Al998   1.775       .  S
O995        C996   1.267       .  A
C996       C1260   1.431       .  S
C997       C1244   1.429       .  S
C1000      C1263   1.446       .  S
C1001      O1002   1.270       .  A
C1001      C1247   1.442       .  S
O1003      C1018   1.253       .  A
O1003     Al1011   1.870       .  S
C1004      O1014   1.265       .  A
C1004      O1005   1.265       .  A
C1004      C1248   1.440       .  S
O1005     Al1007   1.925       .  S
O1006      C1008   1.251       .  A
O1006     Al1007   1.869       .  S
Al1007     O1015   1.862       .  S
Al1007     O1017   1.942       .  S
Al1007     O1016   1.776       .  S
C1008      O1021   1.273       .  A
C1008      C1258   1.446       .  S
O1009      C1019   1.267       .  A
O1009     Al1011   1.918       .  S
O1010      C1023   1.265       .  A
O1010     Al1020   1.911       .  S
Al1011     O1024   1.938       .  S
Al1011     O1021   1.977       .  S
Al1011     O1016   1.773       .  S
O1012      C1019   1.266       .  A
O1012     Al1020   1.934       .  S
O1013      C1022   1.266       .  A
O1013     Al1020   1.949       .  S
O1014     Al1020   1.914       .  S
O1015      C1022   1.253       .  A
O1016     Al1020   1.777       .  S
O1017      C1018   1.264       .  A
C1018      C1252   1.425       .  S
C1019      C1241   1.451       .  S
C1022      C1262   1.429       .  S
C1023      O1024   1.269       .  A
C1023      C1246   1.444       .  S
O1025      C1040   1.256       .  A
O1025     Al1033   1.880       .  S
C1026      O1036   1.262       .  A
C1026      O1027   1.264       .  A
C1026      C1239   1.433       .  S
O1027     Al1029   1.916       .  S
O1028      C1030   1.256       .  A
O1028     Al1029   1.890       .  S
Al1029     O1037   1.878       .  S
Al1029     O1039   1.917       .  S
Al1029     O1038   1.781       .  S
C1030      O1043   1.264       .  A
C1030      C1236   1.445       .  S
O1031      C1041   1.262       .  A
O1031     Al1033   1.901       .  S
O1032      C1045   1.264       .  A
O1032     Al1042   1.907       .  S
Al1033     O1046   1.919       .  S
Al1033     O1043   1.943       .  S
Al1033     O1038   1.781       .  S
O1034      C1041   1.259       .  A
O1034     Al1042   1.908       .  S
O1035      C1044   1.260       .  A
O1035     Al1042   1.927       .  S
O1036     Al1042   1.902       .  S
O1037      C1044   1.253       .  A
O1038     Al1042   1.790       .  S
O1039      C1040   1.261       .  A
C1040      C1234   1.425       .  S
C1041      C1243   1.429       .  S
C1044      C1232   1.431       .  S
C1045      O1046   1.264       .  A
O1047      C1062   1.256       .  A
O1047     Al1055   1.886       .  S
C1048      O1058   1.264       .  A
C1048      O1049   1.260       .  A
C1048      C1238   1.433       .  S
O1049     Al1051   1.905       .  S
O1050      C1052   1.258       .  A
O1050     Al1051   1.892       .  S
Al1051     O1059   1.880       .  S
Al1051     O1061   1.912       .  S
Al1051     O1060   1.783       .  S
C1052      O1065   1.267       .  A
C1052      C1230   1.447       .  S
O1053      C1063   1.263       .  A
O1053     Al1055   1.908       .  S
O1054      C1067   1.260       .  A
O1054     Al1064   1.898       .  S
Al1055     O1068   1.922       .  S
Al1055     O1065   1.949       .  S
Al1055     O1060   1.785       .  S
O1056      C1063   1.267       .  A
O1056     Al1064   1.942       .  S
O1057      C1066   1.266       .  A
O1057     Al1064   1.950       .  S
O1058     Al1064   1.911       .  S
O1059      C1066   1.255       .  A
O1060     Al1064   1.788       .  S
O1061      C1062   1.258       .  A
C1062      C1227   1.425       .  S
C1063      C1242   1.451       .  S
C1066      C1225   1.443       .  S
C1067      O1068   1.263       .  A
C1067      C1240   1.433       .  S
O1069      C1084   1.255       .  A
O1069     Al1077   1.878       .  S
C1070      O1080   1.263       .  A
C1070      O1071   1.263       .  A
C1070      C1223   1.432       .  S
O1071     Al1073   1.915       .  S
O1072      C1074   1.259       .  A
O1072     Al1073   1.897       .  S
Al1073     O1081   1.888       .  S
Al1073     O1083   1.915       .  S
Al1073     O1082   1.783       .  S
C1074      O1087   1.265       .  A
C1074      C1235   1.446       .  S
O1075      C1085   1.259       .  A
O1075     Al1077   1.899       .  S
O1076      C1089   1.262       .  A
O1076     Al1086   1.900       .  S
Al1077     O1090   1.922       .  S
Al1077     O1087   1.939       .  S
Al1077     O1082   1.781       .  S
O1078      C1085   1.263       .  A
O1078     Al1086   1.931       .  S
O1079      C1088   1.263       .  A
O1079     Al1086   1.939       .  S
O1080     Al1086   1.903       .  S
O1081      C1088   1.256       .  A
O1082     Al1086   1.789       .  S
O1083      C1084   1.259       .  A
C1084      C1228   1.424       .  S
C1085      C1334   1.441       .  S
C1088      C1220   1.441       .  S
C1089      O1090   1.264       .  A
C1089      C1222   1.433       .  S
C1092      O1102   1.264       .  A
C1092      O1093   1.263       .  A
C1092      C1221   1.432       .  S
O1093     Al1095   1.912       .  S
O1094      C1096   1.259       .  A
O1094     Al1095   1.898       .  S
Al1095     O1103   1.889       .  S
Al1095     O1105   1.916       .  S
Al1095     O1104   1.783       .  S
C1096      O1109   1.265       .  A
C1096      C1229   1.447       .  S
O1097      C1107   1.259       .  A
O1097     Al1099   1.898       .  S
O1098      C1111   1.262       .  A
Al1099     O1109   1.940       .  S
Al1099     O1104   1.783       .  S
O1100      C1107   1.264       .  A
O1100     Al1108   1.934       .  S
O1101      C1110   1.263       .  A
O1101     Al1108   1.941       .  S
O1102     Al1108   1.906       .  S
O1103      C1110   1.256       .  A
O1104     Al1108   1.790       .  S
O1105      C1106   1.259       .  A
C1107      C1326   1.442       .  S
C1110      C1217   1.443       .  S
C1111      O1112   1.264       .  A
C1111      C1224   1.433       .  S
O1113      C1128   1.256       .  A
O1113     Al1121   1.882       .  S
C1114      O1124   1.262       .  A
C1114      O1115   1.262       .  A
C1114      C1209   1.431       .  S
O1115     Al1117   1.909       .  S
O1116      C1118   1.258       .  A
O1116     Al1117   1.893       .  S
Al1117     O1125   1.876       .  S
Al1117     O1127   1.914       .  S
Al1117     O1126   1.782       .  S
C1118      O1131   1.267       .  A
C1118      C1213   1.449       .  S
O1119      C1129   1.263       .  A
O1119     Al1121   1.905       .  S
O1120      C1133   1.261       .  A
O1120     Al1130   1.899       .  S
Al1121     O1134   1.922       .  S
Al1121     O1131   1.951       .  S
Al1121     O1126   1.782       .  S
O1122      C1129   1.266       .  A
O1122     Al1130   1.936       .  S
O1123      C1132   1.265       .  A
O1123     Al1130   1.946       .  S
O1124     Al1130   1.904       .  S
O1125      C1132   1.254       .  A
O1126     Al1130   1.788       .  S
O1127      C1128   1.259       .  A
C1128      C1215   1.423       .  S
C1129      C1278   1.446       .  S
C1132      C1219   1.439       .  S
C1133      O1134   1.263       .  A
C1133      C1211   1.433       .  S
O1135      C1150   1.256       .  A
O1135     Al1143   1.883       .  S
C1136      O1146   1.262       .  A
C1136      O1137   1.262       .  A
C1136      C1212   1.433       .  S
Al1139     O1147   1.879       .  S
Al1139     O1149   1.914       .  S
Al1139     O1148   1.783       .  S
C1140      O1153   1.265       .  A
O1141      C1151   1.261       .  A
O1141     Al1143   1.900       .  S
O1142      C1155   1.261       .  A
O1142     Al1152   1.898       .  S
Al1143     O1156   1.920       .  S
Al1143     O1153   1.943       .  S
Al1143     O1148   1.782       .  S
O1144      C1151   1.266       .  A
O1144     Al1152   1.938       .  S
O1145      C1154   1.266       .  A
O1145     Al1152   1.950       .  S
O1147      C1154   1.254       .  A
O1148     Al1152   1.788       .  S
O1149      C1150   1.259       .  A
C1150      C1207   1.425       .  S
C1151      C1269   1.445       .  S
C1154      C1218   1.442       .  S
C1155      O1156   1.263       .  A
C1155      C1210   1.432       .  S
O1157      C1172   1.255       .  A
O1157     Al1165   1.881       .  S
C1158      O1168   1.263       .  A
C1158      O1159   1.261       .  A
O1159     Al1161   1.907       .  S
O1160      C1162   1.259       .  A
O1160     Al1161   1.892       .  S
Al1161     O1169   1.877       .  S
Al1161     O1171   1.915       .  S
Al1161     O1170   1.782       .  S
C1162      O1175   1.267       .  A
C1162      C1205   1.444       .  S
O1163      C1173   1.261       .  A
O1163     Al1165   1.898       .  S
O1164      C1177   1.260       .  A
O1164     Al1174   1.899       .  S
Al1165     O1178   1.921       .  S
Al1165     O1175   1.947       .  S
Al1165     O1170   1.781       .  S
O1166      C1173   1.264       .  A
O1166     Al1174   1.927       .  S
O1167      C1176   1.263       .  A
O1167     Al1174   1.934       .  S
O1168     Al1174   1.908       .  S
O1169      C1176   1.255       .  A
O1170     Al1174   1.787       .  S
O1171      C1172   1.259       .  A
C1172      C1216   1.423       .  S
C1173      C1301   1.440       .  S
C1176      C1231   1.431       .  S
C1177      O1178   1.263       .  A
C1177      C1204   1.434       .  S
O1179      C1194   1.255       .  A
O1179     Al1187   1.879       .  S
C1180      O1190   1.264       .  A
C1180      O1181   1.263       .  A
C1180      C1203   1.433       .  S
O1181     Al1183   1.912       .  S
O1182      C1184   1.258       .  A
O1182     Al1183   1.896       .  S
Al1183     O1191   1.888       .  S
Al1183     O1193   1.915       .  S
Al1183     O1192   1.785       .  S
C1184      O1197   1.266       .  A
C1184      C1214   1.449       .  S
O1185      C1195   1.262       .  A
O1185     Al1187   1.907       .  S
O1186      C1199   1.264       .  A
O1186     Al1196   1.905       .  S
Al1187     O1200   1.916       .  S
Al1187     O1197   1.945       .  S
Al1187     O1192   1.782       .  S
O1188      C1195   1.265       .  A
O1188     Al1196   1.937       .  S
O1189      C1198   1.264       .  A
O1189     Al1196   1.946       .  S
O1190     Al1196   1.906       .  S
O1191      C1198   1.256       .  A
O1192     Al1196   1.789       .  S
O1193      C1194   1.259       .  A
C1194      C1208   1.424       .  S
C1195      C1298   1.450       .  S
C1198      C1226   1.444       .  S
C1199      O1200   1.263       .  A
C1199      C1202   1.432       .  S
C1201      C1202   1.204       .  T
C1203      C1204   1.205       .  T
C1205      C1206   1.211       .  T
C1207      C1208   1.199       .  T
C1209      C1210   1.204       .  T
C1211      C1212   1.205       .  T
C1213      C1214   1.214       .  T
C1215      C1216   1.198       .  T
C1217      C1218   1.210   1_455  T
C1219      C1220   1.209   1_655  T
C1221      C1222   1.205       .  T
C1223      C1224   1.204       .  T
C1225      C1226   1.211   1_455  T
C1227      C1228   1.199       .  T
C1229      C1230   1.213       .  T
C1231      C1232   1.203   1_655  T
C1233      C1234   1.200       .  T
C1235      C1236   1.212       .  T
C1237      C1238   1.205       .  T
C1239      C1240   1.205       .  T
C1241      C1242   1.216       .  T
C1243      C1244   1.203       .  T
C1245      C1246   1.211       .  T
C1247      C1248   1.209       .  T
C1249      C1250   1.216       .  T
C1251      C1252   1.202       .  T
C1253      C1254   1.214       .  T
C1255      C1256   1.214       .  T
C1257      C1258   1.214       .  T
C1259      C1260   1.204       .  T
C1261      C1262   1.203       .  T
C1263      C1264   1.212       .  T
C1265      C1266   1.204       .  T
C1267      C1268   1.205       .  T
C1269      C1270   1.212       .  T
C1271      C1272   1.209       .  T
C1273      C1274   1.199       .  T
C1275      C1276   1.214       .  T
C1277      C1278   1.212       .  T
C1279      C1280   1.212       .  T
C1281      C1282   1.201       .  T
C1283      C1284   1.203       .  T
C1285      C1286   1.206       .  T
C1287      C1288   1.210       .  T
C1289      C1290   1.219       .  T
C1291      C1292   1.210       .  T
C1293      C1294   1.206       .  T
C1297      C1298   1.216       .  T
C1299      C1300   1.215   1_565  T
C1301      C1302   1.209       .  T
C1303      C1304   1.206   1_545  T
C1307      C1308   1.203       .  T
C1309      C1310   1.209       .  T
C1311      C1312   1.211       .  T
C1313      C1314   1.200       .  T
C1315      C1316   1.212       .  T
C1317      C1318   1.217       .  T
C1319      C1320   1.200       .  T
C1321      C1322   1.203       .  T
C1323      C1324   1.205       .  T
C1325      C1326   1.210       .  T
C1327      C1328   1.206   1_565  T
C1329      C1330   1.216       .  T
C1331      C1332   1.200       .  T
C1333      C1334   1.210       .  T
C1335      C1336   1.207   1_565  T
C1337      C1338   1.213       .  T
C1339      C1340   1.204       .  T
C1341      C1342   1.204       .  T
C1343      C1344   1.199       .  T
