geometry optimzed in LAMMPS
_audit_creation_date              2020-12-01 
_audit_creation_method            'lammps2cif' 
_symmetry_space_group_name_H-M    'P1' 
_symmetry_Int_Tables_number       1 
_symmetry_cell_setting            triclinic 
loop_ 
_symmetry_equiv_pos_as_xyz 
  x,y,z 
_cell_length_a                    41.8796893 
_cell_length_b                    42.46683331461289 
_cell_length_c                    32.48473196322886 
_cell_angle_alpha                 90.77299230886982 
_cell_angle_beta                  89.19920692191917 
_cell_angle_gamma                 119.87862281584128 
loop_ 
_atom_site_label 
_atom_site_type_symbol 
_atom_site_fract_x 
_atom_site_fract_y 
_atom_site_fract_z 
_atom_site_charge 
Fe1        Fe  0.35368588  0.18837862  0.34093071     1.65800
Fe2        Fe  0.35800731  0.25731584  0.39653488     1.73200
Fe3        Fe  0.28016239  0.19986045  0.34555645     1.54400
O4          O  0.28872973  0.18640848  0.28676422    -0.82200
O5          O  0.31686864  0.23618259  0.44012992    -0.80500
O6          O  0.34729672  0.19989843  0.28145047    -0.84700
O7          O  0.30452311  0.13864469  0.33706680    -0.79500
O8          O  0.29425577  0.25039991  0.32436088    -0.81300
O9          O  0.38248151  0.23216891  0.42721141    -0.84100
C10         C  0.27236863  0.12673607  0.35208643     0.96700
C11         C  0.31660241  0.19193611  0.26527244     1.04100
O12         O  0.33059879  0.21551632  0.36087840    -1.13000
O13         O  0.40236682  0.28186943  0.35637743    -0.75500
O14         O  0.40709506  0.23317085  0.34243568    -0.79000
O15         O  0.26129417  0.14773145  0.36557058    -0.79700
C16         C  0.42162218  0.26747729  0.34639586     0.95600
O17         O  0.35924437  0.17631193  0.40030014    -0.77600
O18         O  0.33518964  0.28646467  0.37101818    -0.82800
C19         C  0.28246115  0.22313406  0.43646663     0.98200
C20         C  0.31200314  0.28070793  0.34276708     1.04100
O21         O  0.26587034  0.21187869  0.40241416    -0.78500
C22         C  0.37459788  0.19912419  0.42931784     1.02400
Fe23       Fe  0.21235096  0.34741673  0.67260055     1.65800
Fe24       Fe  0.27903581  0.34906919  0.61257383     1.73200
Fe25       Fe  0.22424301  0.27486377  0.67036066     1.54400
O26         O  0.21615888  0.28735809  0.73011003    -0.82200
O27         O  0.25560777  0.30594105  0.57245373    -0.80500
O28         O  0.22701877  0.34451383  0.73239631    -0.84700
O29         O  0.16304768  0.29978307  0.68159314    -0.79500
O30         O  0.27720982  0.28954330  0.68588232    -0.81300
O31         O  0.25086001  0.37058216  0.58201812    -0.84100
C32         C  0.14919534  0.26747054  0.66836634     0.96700
C33         C  0.22159150  0.31558521  0.75011978     1.04100
O34         O  0.23903149  0.32380118  0.65212407    -1.13000
O35         O  0.30592414  0.39564145  0.64871490    -0.75500
O36         O  0.25683239  0.39971618  0.66645362    -0.79000
O37         O  0.16941635  0.25477759  0.65617433    -0.79700
C38         C  0.29125610  0.41442466  0.65962002     0.95600
O39         O  0.19619590  0.34951759  0.61329450    -0.77600
O40         O  0.31107053  0.32856144  0.63671762    -0.82800
C41         C  0.24123401  0.27201838  0.57765762     0.98200
C42         C  0.30655489  0.30581828  0.66462184     1.04100
O43         O  0.23115283  0.25718800  0.61275769    -0.78500
C44         C  0.21725373  0.36277861  0.58208362     1.02400
Fe45       Fe  0.35403329  0.13949733  0.67700702     1.65800
Fe46       Fe  0.42050342  0.13395708  0.72660308     1.73200
Fe47       Fe  0.44049812  0.20875840  0.67235622     1.54400
O48         O  0.41568788  0.19891697  0.61491408    -0.82200
O49         O  0.44010164  0.17527668  0.76927266    -0.80500
O50         O  0.36736554  0.14283077  0.61595187    -0.84700
O51         O  0.35491846  0.18926113  0.67418915    -0.79500
O52         O  0.47230392  0.18864129  0.64901328    -0.81300
O53         O  0.37073635  0.10927692  0.75872675    -0.84100
C54         C  0.37760669  0.22197954  0.68438806     0.96700
C55         C  0.39008396  0.17113985  0.59670970     1.04100
O56         O  0.40513834  0.16099575  0.69201547    -1.13000
O57         O  0.40018065  0.09043968  0.68575569    -0.75500
O58         O  0.34591418  0.08671153  0.67716901    -0.79000
O59         O  0.41064940  0.23227629  0.69366118    -0.79700
C60         C  0.36620096  0.07216388  0.67639282     0.95600
O61         O  0.33954747  0.13583707  0.73774448    -0.77600
O62         O  0.47408964  0.15721352  0.70167907    -0.82800
C63         C  0.46346859  0.20848024  0.76322339     0.98200
C64         C  0.48983935  0.17872295  0.67177073     1.04100
O65         O  0.46922352  0.22337794  0.72798142    -0.78500
C66         C  0.34674019  0.11896490  0.76460072     1.02400
Fe67       Fe  0.15499061  0.27899369  0.00505603     1.65800
Fe68       Fe  0.09307693  0.21265798  0.94287167     1.73200
Fe69       Fe  0.06995411  0.26794077  0.99706168     1.54400
O70         O  0.08716637  0.27621299  0.05818361    -0.82200
O71         O  0.07164210  0.23261696  0.90138250    -0.80500
O72         O  0.13415883  0.26592429  0.06411489    -0.84700
O73         O  0.15651484  0.32837205  0.01068078    -0.79500
O74         O  0.03030395  0.21572476  0.01139265    -0.81300
O75         O  0.14326740  0.24235478  0.91179840    -0.84100
C76         C  0.13803192  0.34176700  0.99608311     0.96700
C77         C  0.11010131  0.27251631  0.08012699     1.04100
O78         O  0.10550978  0.25263303  0.98192539    -1.13000
O79         O  0.11356866  0.18712969  0.97912853    -0.75500
O80         O  0.16372821  0.23479455  0.00327185    -0.79000
O81         O  0.10544473  0.32186142  0.98351205    -0.79700
C82         C  0.14509736  0.20102045  0.99544886     0.95600
O83         O  0.17657162  0.29426987  0.94685702    -0.77600
O84         O  0.04040258  0.18013006  0.96795926    -0.82800
C85         C  0.05367797  0.24925277  0.90392359     0.98200
C86         C  0.02008158  0.18546217  0.99347601     1.04100
O87         O  0.04904171  0.26192699  0.93778309    -0.78500
C88         C  0.16895348  0.27543949  0.91404367     1.02400
Fe89       Fe  0.30223690  0.13267593  0.01094724     1.65800
Fe90       Fe  0.23097058  0.06626342  0.06179756     1.73200
Fe91       Fe  0.29092897  0.04938674  0.00949901     1.54400
O92         O  0.30683034  0.07375514  0.95230248    -0.82200
O93         O  0.25235877  0.04705147  0.10452592    -0.80500
O94         O  0.29152977  0.11696582  0.95070032    -0.84700
O95         O  0.35264055  0.13324759  0.00636002    -0.79500
O96         O  0.24041219  0.01591418  0.98487285    -0.81300
O97         O  0.25491417  0.11525176  0.09478133    -0.84100
C98         C  0.36470668  0.11292613  0.01925312     0.96700
C99         C  0.30017875  0.09552135  0.93261201     1.04100
O100        O  0.27462301  0.08257462  0.02764841    -1.13000
O101        O  0.20707948  0.08592940  0.02147147    -0.75500
O102        O  0.25663232  0.14029903  0.01317538    -0.79000
O103        O  0.34319825  0.08129700  0.03247375    -0.79700
C104        C  0.22182287  0.11967646  0.01399356     0.95600
O105        O  0.31262478  0.14813093  0.07106762    -0.77600
O106        O  0.20303187  0.01387841  0.03496515    -0.82800
C107        C  0.26465507  0.02538833  0.09910011     0.98200
C108        C  0.21085639  0.49873494  0.00536533     1.04100
O109        O  0.27626067  0.02075278  0.06443749    -0.78500
C110        C  0.28843727  0.14019228  0.09907907     1.02400
Fe111      Fe  0.15131139  0.33712621  0.33629006     1.65800
Fe112      Fe  0.14550635  0.40142441  0.28303207     1.73200
Fe113      Fe  0.22384169  0.42198874  0.33450344     1.54400
O114        O  0.21410276  0.40123848  0.39378909    -0.82200
O115        O  0.18745941  0.42292289  0.24054541    -0.80500
O116        O  0.15721161  0.35358528  0.39722925    -0.84700
O117        O  0.20027722  0.33624480  0.33923802    -0.79500
O118        O  0.20958631  0.45934610  0.35448078    -0.81300
O119        O  0.12322054  0.35287551  0.24945535    -0.84100
C120        C  0.23299756  0.35680252  0.32684412     0.96700
C121        C  0.18664438  0.37770647  0.41446471     1.04100
O122        O  0.17356258  0.38727581  0.31823201    -1.13000
O123        O  0.09976416  0.38011847  0.32194925    -0.75500
O124        O  0.09803517  0.32859057  0.33625750    -0.79000
O125        O  0.24429515  0.38897283  0.31537419    -0.79700
C126        C  0.08209527  0.34721201  0.33348547     0.95600
O127        O  0.14587132  0.31984919  0.27592046    -0.77600
O128        O  0.16650628  0.45289063  0.31030834    -0.82800
C129        C  0.22207732  0.44272984  0.24401703     0.98200
C130        C  0.19143377  0.47165509  0.33651510     1.04100
O131        O  0.23890900  0.44672301  0.27756311    -0.78500
C132        C  0.13114533  0.32753769  0.24665942     1.02400
C133        C  0.27633268  0.02081906  0.17224764    -0.20800
C134        C  0.26286120  0.00330177  0.13433577    -0.07400
C135        C  0.24200953  0.46500499  0.13246480     0.13500
C136        C  0.23220355  0.44537369  0.16914592    -0.20900
C137        C  0.24262982  0.46313239  0.20740854    -0.07400
C138        C  0.26673060  0.50112677  0.20900661     0.13500
C139        C  0.28037141  0.02138571  0.24922074    -0.24200
H140        H  0.29262041  0.05023000  0.17326355     0.14800
H141        H  0.21403871  0.41617427  0.16817176     0.14800
C142        C  0.22703905  0.44494993  0.09242257    -0.24200
H143        H  0.29799755  0.05109608  0.24452279     0.05000
H144        H  0.29700608  0.51165170  0.26530970     0.08200
H145        H  0.25684015  0.01699476  0.26915515     0.08200
H146        H  0.25003391  0.45050428  0.07088809     0.08200
H147        H  0.20881578  0.45383195  0.07855859     0.08200
H148        H  0.21060233  0.41509869  0.09684073     0.05000
C149        C  0.09036773  0.29801526  0.18705580    -0.20800
C150        C  0.12318309  0.30701998  0.20732592    -0.07400
C151        C  0.14920225  0.29978768  0.18764698     0.13500
C152        C  0.14267749  0.28589590  0.14724480    -0.20900
C153        C  0.11108501  0.27948744  0.12548158    -0.07400
C154        C  0.08371634  0.28413985  0.14666261     0.13500
C155        C  0.04754717  0.27520646  0.12736336    -0.24200
H156        H  0.07021717  0.30302302  0.20258629     0.14800
H157        H  0.16360150  0.28202948  0.13185212     0.14800
C158        C  0.18505963  0.30891842  0.20785889    -0.24200
H159        H  0.02857209  0.27737048  0.14997591     0.05000
H160        H  0.03357919  0.24689376  0.11533788     0.08200
H161        H  0.05211493  0.29449314  0.10224947     0.08200
H162        H  0.17957758  0.29258414  0.23615679     0.08200
H163        H  0.20058718  0.33828507  0.21586587     0.08200
H164        H  0.20283066  0.30293365  0.18731586     0.05000
C165        C  0.20833502  0.44174768  0.98371351    -0.20800
C166        C  0.18866461  0.45878110  0.99772636    -0.07400
C167        C  0.15102392  0.43677029  0.00843558     0.13500
C168        C  0.13460885  0.39859051  0.00570624    -0.20900
C169        C  0.15530378  0.38191136  0.99440376    -0.07400
C170        C  0.19268796  0.40400036  0.98300982     0.13500
C171        C  0.21688977  0.38835265  0.97070706    -0.24200
H172        H  0.23725838  0.45810269  0.97581289     0.14800
H173        H  0.10591965  0.38166330  0.01429794     0.14800
C174        C  0.12803717  0.45310778  0.02266874    -0.24200
H175        H  0.24446234  0.40960286  0.95974503     0.05000
H176        H  0.20404425  0.36833413  0.94547516     0.08200
H177        H  0.22130826  0.37507848  0.99748090     0.08200
H178        H  0.12918958  0.47250488  0.99930933     0.08200
H179        H  0.13828402  0.46737562  0.05255006     0.08200
H180        H  0.09873588  0.43200387  0.02721829     0.05000
C181        C  0.15452753  0.14887124  0.97589403    -0.20800
C182        C  0.16178718  0.17765143  0.00342065    -0.07400
C183        C  0.18684806  0.18495115  0.03596842     0.13500
C184        C  0.20495117  0.16469803  0.03884420    -0.20900
C185        C  0.19877806  0.13708086  0.01043337    -0.07400
C186        C  0.17282189  0.12863436  0.97895635     0.13500
C187        C  0.16572209  0.09950714  0.94757910    -0.24200
H188        H  0.13555151  0.14310460  0.95082081     0.14800
H189        H  0.22458344  0.17078161  0.06331918     0.14800
C190        C  0.19443601  0.21361272  0.06832451    -0.24200
H191        H  0.14530256  0.09689234  0.92436259     0.05000
H192        H  0.15484607  0.07294658  0.96313176     0.08200
H193        H  0.19176334  0.10615427  0.93119185     0.08200
H194        H  0.16813326  0.20879819  0.08257018     0.08200
H195        H  0.20911851  0.24104618  0.05450131     0.08200
H196        H  0.21211413  0.21321952  0.09326655     0.05000
C197        C  0.41858853  0.13211025  0.97368666    -0.20800
C198        C  0.40439770  0.12522801  0.01391029    -0.07400
C199        C  0.42837350  0.13099234  0.04695214     0.13500
C200        C  0.46659691  0.14802978  0.03941872    -0.20900
C201        C  0.48101847  0.15735615  0.99931022    -0.07400
C202        C  0.45642611  0.14728019  0.96588839     0.13500
C203        C  0.47008614  0.15458995  0.92200801    -0.24200
H204        H  0.39994207  0.12632416  0.94820379     0.14800
H205        H  0.48540878  0.15568401  0.06504359     0.14800
C206        C  0.41408074  0.12110861  0.09020694    -0.24200
H207        H  0.44718018  0.14565811  0.89979146     0.05000
H208        H  0.48507826  0.13979015  0.91460893     0.08200
H209        H  0.48880865  0.18402863  0.91781477     0.08200
H210        H  0.39387205  0.09162651  0.09197953     0.08200
H211        H  0.40068463  0.13682448  0.09942346     0.08200
H212        H  0.43653028  0.12740943  0.11230878     0.05000
C213        C  0.02533927  0.24100060  0.79237558    -0.20800
C214        C  0.48776084  0.22893290  0.79759593    -0.07400
C215        C  0.47399810  0.23090736  0.83686924     0.13500
C216        C  0.49786771  0.24269298  0.87067359    -0.20900
C217        C  0.03452960  0.25028258  0.86635450    -0.07400
C218        C  0.04884545  0.25109744  0.82621205     0.13500
C219        C  0.08820779  0.26095235  0.81755779    -0.24200
H220        H  0.03586385  0.23968215  0.76206225     0.14800
H221        H  0.48681603  0.24232800  0.90114951     0.14800
C222        C  0.43398449  0.21942280  0.84339721    -0.24200
H223        H  0.10067476  0.28354416  0.79511894     0.05000
H224        H  0.10561421  0.27000622  0.84521899     0.08200
H225        H  0.08895130  0.23713708  0.80411751     0.08200
H226        H  0.41643867  0.19010570  0.83615537     0.08200
H227        H  0.42640510  0.23552279  0.82319997     0.08200
H228        H  0.42812468  0.22376727  0.87578262     0.05000
C229        C  0.31267021  0.13038000  0.86848140    -0.20800
C230        C  0.30542788  0.09794948  0.88751042    -0.07400
C231        C  0.30582696  0.07001925  0.86342241     0.13500
C232        C  0.31727402  0.07697477  0.82227315    -0.20900
C233        C  0.32750843  0.11057038  0.80448195    -0.07400
C234        C  0.32362699  0.13701828  0.82723734     0.13500
C235        C  0.33334246  0.17320553  0.80921604    -0.24200
H236        H  0.31165218  0.15156226  0.88643680     0.14800
H237        H  0.31949868  0.05649113  0.80417292     0.14800
C238        C  0.29438778  0.03289435  0.88031197    -0.24200
H239        H  0.33033163  0.19125914  0.83208427     0.05000
H240        H  0.31490652  0.16922071  0.78304479     0.08200
H241        H  0.36236430  0.18705607  0.79838828     0.08200
H242        H  0.26660955  0.02113849  0.89469989     0.08200
H243        H  0.31463224  0.03461363  0.90316988     0.08200
H244        H  0.29299246  0.01382701  0.85571727     0.05000
C245        C  0.19990493  0.32940325  0.81549960    -0.20800
C246        C  0.21753763  0.31267834  0.79550853    -0.07400
C247        C  0.22532234  0.28896871  0.81815895     0.13500
C248        C  0.21093963  0.27900332  0.85813052    -0.20900
C249        C  0.18980500  0.29267279  0.87625413    -0.07400
C250        C  0.18566311  0.31957715  0.85550952     0.13500
C251        C  0.16443422  0.33684433  0.87314965    -0.24200
H252        H  0.19443096  0.34808880  0.79866564     0.14800
H253        H  0.21489729  0.25922873  0.87474062     0.14800
C254        C  0.24857071  0.27390692  0.80057986    -0.24200
H255        H  0.14220931  0.33274571  0.85180390     0.05000
H256        H  0.18322388  0.36654005  0.87658822     0.08200
H257        H  0.15151352  0.32571500  0.90340343     0.08200
H258        H  0.27503954  0.29642053  0.78872761     0.08200
H259        H  0.23388911  0.25412303  0.77551441     0.08200
H260        H  0.25508797  0.25939657  0.82430315     0.05000
C261        C  0.04686639  0.23665369  0.66429181    -0.20800
C262        C  0.03053131  0.19889364  0.66800692    -0.07400
C263        C  0.05329157  0.18333162  0.67161407     0.13500
C264        C  0.09194325  0.20612456  0.67050923    -0.20900
C265        C  0.10827745  0.24423411  0.66781827    -0.07400
C266        C  0.08499331  0.25954608  0.66514949     0.13500
C267        C  0.09944444  0.29998276  0.66365586    -0.24200
H268        H  0.02935887  0.24870052  0.66265356     0.14800
H269        H  0.10945223  0.19416807  0.67291585     0.14800
C270        C  0.03698561  0.14295394  0.67598628    -0.24200
H271        H  0.07713485  0.30645673  0.65886639     0.05000
H272        H  0.11942213  0.31226965  0.63797723     0.08200
H273        H  0.11274639  0.31283250  0.69327499     0.08200
H274        H  0.01882378  0.12875865  0.64944525     0.08200
H275        H  0.02070950  0.13368813  0.70497710     0.08200
H276        H  0.05867042  0.13519009  0.67694021     0.05000
C277        C  0.29646145  0.47400624  0.64644927    -0.20800
C278        C  0.31321837  0.45491571  0.66137027    -0.07400
C279        C  0.34921440  0.47487684  0.67735544     0.13500
C280        C  0.36637792  0.01311930  0.68033684    -0.20900
C281        C  0.34874251  0.03219744  0.66735075    -0.07400
C282        C  0.31354164  0.01202768  0.64875899     0.13500
C283        C  0.29342448  0.02982990  0.63081206    -0.24200
H284        H  0.26934753  0.45885367  0.63282862     0.14800
H285        H  0.39336593  0.02805608  0.69419327     0.14800
C286        C  0.36901233  0.45599881  0.69275939    -0.24200
H287        H  0.26821002  0.01001848  0.61414982     0.05000
H288        H  0.31155424  0.05093739  0.60844262     0.08200
H289        H  0.28446674  0.04198978  0.65562585     0.08200
H290        H  0.37362151  0.44123946  0.66701137     0.08200
H291        H  0.35237279  0.43650102  0.71727433     0.08200
H292        H  0.39631171  0.47555953  0.70577212     0.05000
C293        C  0.33939086  0.28471543  0.70994021    -0.20800
C294        C  0.33413660  0.29397966  0.67018162    -0.07400
C295        C  0.34802953  0.28335603  0.63591415     0.15900
C296        C  0.36313209  0.26077333  0.64206527    -0.20900
C297        C  0.36584771  0.24942585  0.68151898    -0.07400
C298        C  0.35574905  0.26319304  0.71606933     0.13500
C299        C  0.36060263  0.25473047  0.75954067    -0.24200
H300        H  0.32911934  0.29295772  0.73638101     0.14800
H301        H  0.37188136  0.25091508  0.61570751     0.14800
C302        C  0.34509607  0.29375503  0.59252463    -0.24200
H303        H  0.37758743  0.28045752  0.77676110     0.05000
H304        H  0.37473686  0.23864786  0.76094450     0.08200
H305        H  0.33327700  0.23940955  0.77489644     0.08200
H306        H  0.36067804  0.32376428  0.58960393     0.08200
H307        H  0.31588933  0.28348881  0.58474148     0.08200
H308        H  0.35654030  0.28227946  0.56960700     0.05000
C309        C  0.16692741  0.34483499  0.48126174    -0.20800
C310        C  0.19023249  0.37712961  0.46003034    -0.07400
C311        C  0.21795461  0.40704746  0.48252192     0.13500
C312        C  0.22423992  0.40223885  0.52365541    -0.20900
C313        C  0.20301179  0.36898046  0.54350411    -0.07400
C314        C  0.17271622  0.34055734  0.52282453     0.13500
C315        C  0.14741263  0.30517187  0.54384279    -0.24200
H316        H  0.14494981  0.32214404  0.46488605     0.14800
H317        H  0.24695698  0.42422481  0.54007881     0.14800
C318        C  0.24137412  0.44415430  0.46391810    -0.24200
H319        H  0.12651912  0.28509971  0.52243268     0.05000
H320        H  0.13258237  0.31014824  0.56928170     0.08200
H321        H  0.16335584  0.29314118  0.55651853     0.08200
H322        H  0.22347947  0.45340537  0.44981669     0.08200
H323        H  0.26059105  0.44351620  0.44052649     0.08200
H324        H  0.25848211  0.46469321  0.48747607     0.05000
C325        C  0.48301398  0.27569335  0.36112959    -0.20800
C326        C  0.46261510  0.29008316  0.34372536    -0.07400
C327        C  0.48182687  0.32515983  0.32632455     0.13500
C328        C  0.02076941  0.34382363  0.32492910    -0.20900
C329        C  0.04124622  0.32870977  0.34111108    -0.07400
C330        C  0.02164339  0.29445545  0.36093538     0.13500
C331        C  0.04065988  0.27718275  0.38268655    -0.24200
H332        H  0.46842550  0.24923549  0.37530741     0.14800
H333        H  0.03520259  0.36998363  0.30996049     0.14800
C334        C  0.46151555  0.34240595  0.30786492    -0.24200
H335        H  0.02086791  0.25264306  0.40006472     0.05000
H336        H  0.06073685  0.29670321  0.40516257     0.08200
H337        H  0.05474547  0.26833124  0.36007363     0.08200
H338        H  0.44532056  0.34702558  0.33208878     0.08200
H339        H  0.44273016  0.32442005  0.28346675     0.08200
H340        H  0.48070250  0.36909070  0.29384860     0.05000
C341        C  0.26880633  0.33089534  0.29358599    -0.20800
C342        C  0.25917546  0.34335354  0.32919540    -0.07400
C343        C  0.27262103  0.34055464  0.36773515     0.13500
C344        C  0.29382767  0.32355764  0.37017562    -0.20900
C345        C  0.30098962  0.30822607  0.33519231    -0.07400
C346        C  0.28963435  0.31329387  0.29607141     0.13500
C347        C  0.29874972  0.30034095  0.25658499    -0.24200
H348        H  0.25889667  0.33367599  0.26393890     0.14800
H349        H  0.30217052  0.31953761  0.40021147     0.14800
C350        C  0.26338211  0.35427454  0.40662507    -0.24200
H351        H  0.31338559  0.32360774  0.23530191     0.05000
H352        H  0.27293943  0.27953996  0.24175873     0.08200
H353        H  0.31696325  0.28872893  0.26130275     0.08200
H354        H  0.23313073  0.33957016  0.41179750     0.08200
H355        H  0.27337256  0.38378404  0.40394646     0.08200
H356        H  0.27632956  0.35013620  0.43409535     0.05000
C357        C  0.22604671  0.07143360  0.31600768    -0.20800
C358        C  0.24654055  0.08723906  0.35164464    -0.07400
C359        C  0.24331275  0.06504513  0.38505055     0.13500
C360        C  0.22179750  0.02710514  0.38082447    -0.20900
C361        C  0.20332463  0.01073621  0.34386471    -0.07400
C362        C  0.20421570  0.03352416  0.31166220     0.13500
C363        C  0.18407481  0.01847407  0.27169121    -0.24200
H364        H  0.22825261  0.08891184  0.29077655     0.14800
H365        H  0.22105818  0.01006256  0.40580231     0.14800
C366        C  0.26368059  0.08142136  0.42449311    -0.24200
H367        H  0.18810633  0.04038885  0.25032235     0.05000
H368        H  0.15408514  0.50161037  0.27789397     0.08200
H369        H  0.19422545  0.00185842  0.25571397     0.08200
H370        H  0.25489130  0.10015361  0.43781057     0.08200
H371        H  0.29377275  0.09680978  0.41822884     0.08200
H372        H  0.25821280  0.06030563  0.44770203     0.05000
C373        C  0.33796564  0.17979340  0.19899587    -0.20800
C374        C  0.31205188  0.18572123  0.22028647    -0.07400
C375        C  0.28088769  0.18186668  0.19885220     0.13500
C376        C  0.27497423  0.16877403  0.15828144    -0.20900
C377        C  0.29937559  0.15991484  0.13851931    -0.07400
C378        C  0.33191409  0.16670808  0.15857898     0.13500
C379        C  0.35911072  0.15773627  0.13885923    -0.24200
H380        H  0.36216266  0.18326467  0.21476989     0.14800
H381        H  0.25045966  0.16424410  0.14227433     0.14800
C382        C  0.25339623  0.19096503  0.21800228    -0.24200
H383        H  0.38196469  0.16304332  0.15992244     0.05000
H384        H  0.37150308  0.17471540  0.11113774     0.08200
H385        H  0.34492858  0.12849018  0.13023465     0.08200
H386        H  0.26799666  0.21887154  0.23109316     0.08200
H387        H  0.23707601  0.17111417  0.24231647     0.08200
H388        H  0.23350067  0.18995464  0.19502065     0.05000
C389        C  0.24249004  0.24374430  0.46763195    -0.20800
C390        C  0.26192602  0.22511081  0.47239993    -0.07400
C391        C  0.26626556  0.21459528  0.51203247     0.13500
C392        C  0.25445882  0.22651763  0.54639216    -0.20900
C393        C  0.24009246  0.24991047  0.54176330    -0.07400
C394        C  0.23187017  0.25674427  0.50190013     0.13500
C395        C  0.21237702  0.27800217  0.49514982    -0.24200
H396        H  0.23849241  0.25096434  0.43698899     0.14800
H397        H  0.25986769  0.22051521  0.57700368     0.14800
C398        C  0.28421149  0.19181086  0.51821221    -0.24200
H399        H  0.20666127  0.27899406  0.46204345     0.05000
H400        H  0.22923506  0.30645652  0.50599459     0.08200
H401        H  0.18560614  0.26462697  0.51177108     0.08200
H402        H  0.31342298  0.20674398  0.50803573     0.08200
H403        H  0.26930115  0.16611235  0.50030923     0.08200
H404        H  0.28375689  0.18476666  0.55110505     0.05000
C405        C  0.35011912  0.16026662  0.48966651    -0.20800
C406        C  0.38098703  0.18666399  0.46847019    -0.07400
C407        C  0.41555068  0.20439866  0.48777946     0.13500
C408        C  0.41791760  0.19705775  0.52910416    -0.20900
C409        C  0.38645912  0.17278871  0.55167612    -0.07400
C410        C  0.35214400  0.15323611  0.53122732     0.13500
C411        C  0.31701170  0.12675429  0.55307102    -0.24200
H412        H  0.32366044  0.14702581  0.47441483     0.14800
H413        H  0.44440933  0.21129202  0.54422975     0.14800
C414        C  0.44988840  0.23083159  0.46482817    -0.24200
H415        H  0.29287862  0.11548837  0.53228828     0.05000
H416        H  0.31136208  0.14058337  0.57905851     0.08200
H417        H  0.31935892  0.10352229  0.56457786     0.08200
H418        H  0.44754527  0.25429021  0.45414890     0.08200
H419        H  0.45399466  0.21677830  0.43798018     0.08200
H420        H  0.47473214  0.24156823  0.48443180     0.05000
Fe421      Fe  0.35370529  0.68839411  0.34091970     1.65800
Fe422      Fe  0.35802402  0.75732028  0.39654862     1.73200
Fe423      Fe  0.28019386  0.69989730  0.34552672     1.54400
O424        O  0.28877349  0.68645715  0.28673430    -0.82200
O425        O  0.31687033  0.73617662  0.44012754    -0.80500
O426        O  0.34733644  0.69993138  0.28144073    -0.84700
O427        O  0.30453913  0.63866477  0.33704023    -0.79500
O428        O  0.29431359  0.75045017  0.32434671    -0.81300
O429        O  0.38248222  0.73215745  0.42722030    -0.84100
C430        C  0.27237953  0.62675802  0.35204436     0.96700
C431        C  0.31664947  0.69197934  0.26525285     1.04100
O432        O  0.33062119  0.71553405  0.36087067    -1.13000
O433        O  0.40239781  0.78188208  0.35641053    -0.75500
O434        O  0.40711316  0.73318028  0.34243901    -0.79000
O435        O  0.26130270  0.64775547  0.36551800    -0.79700
C436        C  0.42164648  0.76748580  0.34641420     0.95600
O437        O  0.35925310  0.67631013  0.40028514    -0.77600
O438        O  0.33522351  0.78648739  0.37103924    -0.82800
C439        C  0.28246665  0.72314499  0.43644736     0.98200
C440        C  0.31205417  0.78074861  0.34277432     1.04100
O441        O  0.26588889  0.71190626  0.40238479    -0.78500
C442        C  0.37460533  0.69911416  0.42931024     1.02400
Fe443      Fe  0.21234411  0.84744305  0.67257164     1.65800
Fe444      Fe  0.27901795  0.84908583  0.61253795     1.73200
Fe445      Fe  0.22423245  0.77488990  0.67033632     1.54400
O446        O  0.21616157  0.78739784  0.73009073    -0.82200
O447        O  0.25558554  0.80595825  0.57241910    -0.80500
O448        O  0.22703202  0.84455867  0.73236019    -0.84700
O449        O  0.16304494  0.79981183  0.68158984    -0.79500
O450        O  0.27719901  0.78957033  0.68585147    -0.81300
O451        O  0.25083831  0.87060113  0.58199021    -0.84100
C452        C  0.14918764  0.76750022  0.66835933     0.96700
C453        C  0.22160461  0.81563380  0.75009172     1.04100
O454        O  0.23901917  0.82382318  0.65209331    -1.13000
O455        O  0.30590852  0.89565199  0.64868206    -0.75500
O456        O  0.25682078  0.89974011  0.66640169    -0.79000
O457        O  0.16940466  0.75480572  0.65615750    -0.79700
C458        C  0.29124430  0.91444079  0.65957534     0.95600
O459        O  0.19617420  0.84952616  0.61327119    -0.77600
O460        O  0.31105363  0.82857555  0.63667447    -0.82800
C461        C  0.24121530  0.77203620  0.57762443     0.98200
C462        C  0.30653995  0.80583709  0.66458383     1.04100
O463        O  0.23113580  0.75720799  0.61272745    -0.78500
C464        C  0.21722901  0.86278859  0.58205883     1.02400
Fe465      Fe  0.35400925  0.63948904  0.67700216     1.65800
Fe466      Fe  0.42049122  0.63398011  0.72661089     1.73200
Fe467      Fe  0.44046465  0.70876936  0.67234768     1.54400
O468        O  0.41566031  0.69890651  0.61490285    -0.82200
O469        O  0.44007605  0.67530909  0.76926923    -0.80500
O470        O  0.36734676  0.64281514  0.61594616    -0.84700
O471        O  0.35487504  0.68924405  0.67416367    -0.79500
O472        O  0.47229700  0.68867702  0.64902222    -0.81300
O473        O  0.37072677  0.60929678  0.75873298    -0.84100
C474        C  0.37755588  0.72196561  0.68435885     0.96700
C475        C  0.39006750  0.67112081  0.59669892     1.04100
O476        O  0.40511609  0.66100290  0.69201062    -1.13000
O477        O  0.40017497  0.59044569  0.68578135    -0.75500
O478        O  0.34590609  0.58670824  0.67718350    -0.79000
O479        O  0.41059846  0.73227093  0.69363777    -0.79700
C480        C  0.36619431  0.57216188  0.67642126     0.95600
O481        O  0.33952051  0.63583591  0.73774249    -0.77600
O482        O  0.47407865  0.65724559  0.70168857    -0.82800
C483        C  0.46342941  0.70851591  0.76321672     0.98200
C484        C  0.48983047  0.67875931  0.67178386     1.04100
O485        O  0.46918147  0.72340880  0.72797325    -0.78500
C486        C  0.34672049  0.61897180  0.76460310     1.02400
Fe487      Fe  0.15497626  0.77899663  0.00501609     1.65800
Fe488      Fe  0.09305793  0.71266975  0.94281661     1.73200
Fe489      Fe  0.06993275  0.76794291  0.99703784     1.54400
O490        O  0.08714135  0.77619951  0.05815693    -0.82200
O491        O  0.07158014  0.73261278  0.90136060    -0.80500
O492        O  0.13414584  0.76592871  0.06407429    -0.84700
O493        O  0.15650243  0.82837543  0.01063718    -0.79500
O494        O  0.03028287  0.71572167  0.01134665    -0.81300
O495        O  0.14322808  0.74239387  0.91171301    -0.84100
C496        C  0.13801079  0.84177114  0.99606591     0.96700
C497        C  0.11008721  0.77251535  0.08009252     1.04100
O498        O  0.10549286  0.75263902  0.98188435    -1.13000
O499        O  0.11358914  0.68714340  0.97902365    -0.75500
O500        O  0.16371536  0.73479882  0.00324074    -0.79000
O501        O  0.10541782  0.82186787  0.98351226    -0.79700
C502        C  0.14510292  0.70103054  0.99538090     0.95600
O503        O  0.17656829  0.79427547  0.94682067    -0.77600
O504        O  0.04040168  0.68012193  0.96793935    -0.82800
C505        C  0.05363703  0.74926936  0.90390675     0.98200
C506        C  0.02007513  0.68545440  0.99344823     1.04100
O507        O  0.04902120  0.76195592  0.93776614    -0.78500
C508        C  0.16893909  0.77546603  0.91399013     1.02400
Fe509      Fe  0.30223708  0.63267520  0.01095156     1.65800
Fe510      Fe  0.23097435  0.56626446  0.06180810     1.73200
Fe511      Fe  0.29094049  0.54939258  0.00951955     1.54400
O512        O  0.30684578  0.57376388  0.95232276    -0.82200
O513        O  0.25235782  0.54704735  0.10453897    -0.80500
O514        O  0.29152137  0.61695636  0.95070897    -0.84700
O515        O  0.35263898  0.63324520  0.00635853    -0.79500
O516        O  0.24042987  0.51591323  0.98488673    -0.81300
O517        O  0.25492524  0.61525438  0.09479456    -0.84100
C518        C  0.36470791  0.61293039  0.01926592     0.96700
C519        C  0.30018096  0.59551798  0.93262506     1.04100
O520        O  0.27462590  0.58257565  0.02766003    -1.13000
O521        O  0.20708228  0.58593518  0.02148387    -0.75500
O522        O  0.25663509  0.64030357  0.01318319    -0.79000
O523        O  0.34320184  0.58130913  0.03250700    -0.79700
C524        C  0.22182562  0.61968169  0.01399947     0.95600
O525        O  0.31263310  0.64813318  0.07106714    -0.77600
O526        O  0.20303902  0.51387886  0.03496773    -0.82800
C527        C  0.26465695  0.52538610  0.09911595     0.98200
C528        C  0.21084165  0.99873594  0.00535637     1.04100
O529        O  0.27626928  0.52075547  0.06445564    -0.78500
C530        C  0.28845064  0.64019399  0.09908399     1.02400
Fe531      Fe  0.15134570  0.83712586  0.33624084     1.65800
Fe532      Fe  0.14551982  0.90142687  0.28302505     1.73200
Fe533      Fe  0.22385705  0.92199762  0.33449403     1.54400
O534        O  0.21410807  0.90122930  0.39377396    -0.82200
O535        O  0.18747094  0.92293910  0.24054012    -0.80500
O536        O  0.15722178  0.85356205  0.39718491    -0.84700
O537        O  0.20032050  0.83626273  0.33919805    -0.79500
O538        O  0.20958381  0.95933684  0.35448795    -0.81300
O539        O  0.12323977  0.85288516  0.24943618    -0.84100
C540        C  0.23304321  0.85683184  0.32681877     0.96700
C541        C  0.18664249  0.87768828  0.41443487     1.04100
O542        O  0.17358512  0.88727982  0.31820939    -1.13000
O543        O  0.09978566  0.88010641  0.32195054    -0.75500
O544        O  0.09806386  0.82857244  0.33619826    -0.79000
O545        O  0.24433202  0.88900166  0.31535372    -0.79700
C546        C  0.08211963  0.84719183  0.33345687     0.95600
O547        O  0.14592717  0.81987727  0.27586325    -0.77600
O548        O  0.16650782  0.95288444  0.31031310    -0.82800
C549        C  0.22208855  0.94274940  0.24401150     0.98200
C550        C  0.19142864  0.97164451  0.33652690     1.04100
O551        O  0.23892223  0.94674492  0.27755769    -0.78500
C552        C  0.13118329  0.82756138  0.24661746     1.02400
C553        C  0.27632080  0.52081000  0.17226760    -0.20800
C554        C  0.26286006  0.50329678  0.13435155    -0.07400
C555        C  0.24200002  0.96501078  0.13245561     0.13500
C556        C  0.23220011  0.94538441  0.16913959    -0.20900
C557        C  0.24263700  0.96314774  0.20739928    -0.07400
C558        C  0.26674306  0.00114113  0.20899037     0.13500
C559        C  0.28035407  0.52136614  0.24924075    -0.24200
H560        H  0.29260268  0.55022129  0.17328922     0.14800
H561        H  0.21403016  0.91618584  0.16817067     0.14800
C562        C  0.22701098  0.94495256  0.09241870    -0.24200
H563        H  0.29797534  0.55107785  0.24454866     0.05000
H564        H  0.29701988  0.01166895  0.26529300     0.08200
H565        H  0.25682076  0.51696722  0.26917585     0.08200
H566        H  0.24999633  0.95049614  0.07087420     0.08200
H567        H  0.20879033  0.95384188  0.07856302     0.08200
H568        H  0.21056656  0.91510249  0.09684238     0.05000
C569        C  0.09039260  0.79804339  0.18702390    -0.20800
C570        C  0.12321512  0.80705079  0.20727963    -0.07400
C571        C  0.14923063  0.79982132  0.18758728     0.13500
C572        C  0.14268810  0.78591562  0.14719208    -0.20900
C573        C  0.11108563  0.77949865  0.12544435    -0.07400
C574        C  0.08372741  0.78416239  0.14663350     0.13500
C575        C  0.04755659  0.77523844  0.12734557    -0.24200
H576        H  0.07024721  0.80305330  0.20256338     0.14800
H577        H  0.16360691  0.78204647  0.13179108     0.14800
C578        C  0.18510316  0.80897119  0.20777499    -0.24200
H579        H  0.02859290  0.77741707  0.14996237     0.05000
H580        H  0.03357532  0.74692291  0.11532870     0.08200
H581        H  0.05212555  0.79452170  0.10222712     0.08200
H582        H  0.17964348  0.79264593  0.23607625     0.08200
H583        H  0.20062507  0.83834042  0.21577100     0.08200
H584        H  0.20287009  0.80299055  0.18721995     0.05000
C585        C  0.20830855  0.94174956  0.98368394    -0.20800
C586        C  0.18864473  0.95878361  0.99771581    -0.07400
C587        C  0.15100774  0.93677419  0.00844298     0.13500
C588        C  0.13459142  0.89859443  0.00571455    -0.20900
C589        C  0.15528168  0.88191495  0.99439207    -0.07400
C590        C  0.19266050  0.90400281  0.98297765     0.13500
C591        C  0.21685548  0.88835431  0.97064725    -0.24200
H592        H  0.23722868  0.95810362  0.97576823     0.14800
H593        H  0.10590560  0.88166770  0.01432039     0.14800
C594        C  0.12802607  0.95311280  0.02269277    -0.24200
H595        H  0.24442251  0.90960394  0.95967050     0.05000
H596        H  0.20399603  0.86833602  0.94541771     0.08200
H597        H  0.22128803  0.87508006  0.99741120     0.08200
H598        H  0.12916998  0.97250877  0.99933710     0.08200
H599        H  0.13828332  0.96738199  0.05257141     0.08200
H600        H  0.09872623  0.93200929  0.02725386     0.05000
C601        C  0.15455786  0.64889116  0.97583280    -0.20800
C602        C  0.16179576  0.67766313  0.00336386    -0.07400
C603        C  0.18683365  0.68495217  0.03593509     0.13500
C604        C  0.20493420  0.66469705  0.03883106    -0.20900
C605        C  0.19878050  0.63708623  0.01041930    -0.07400
C606        C  0.17284892  0.62865172  0.97891645     0.13500
C607        C  0.16577139  0.59953294  0.94753617    -0.24200
H608        H  0.13560021  0.64313141  0.95074173     0.14800
H609        H  0.22454945  0.67077412  0.06332354     0.14800
C610        C  0.19439931  0.71360408  0.06829623    -0.24200
H611        H  0.14536942  0.59692507  0.92429963     0.05000
H612        H  0.15488341  0.57296806  0.96308239     0.08200
H613        H  0.19182433  0.60618377  0.93117376     0.08200
H614        H  0.16808693  0.70878580  0.08251821     0.08200
H615        H  0.20909232  0.74104173  0.05448406     0.08200
H616        H  0.21205929  0.71320299  0.09325490     0.05000
C617        C  0.41857804  0.63213720  0.97368128    -0.20800
C618        C  0.40439505  0.62522521  0.01390735    -0.07400
C619        C  0.42837314  0.63094834  0.04693386     0.13500
C620        C  0.46659503  0.64798014  0.03938820    -0.20900
C621        C  0.48100880  0.65733605  0.99927979    -0.07400
C622        C  0.45641121  0.64729848  0.96586858     0.13500
C623        C  0.47006343  0.65464477  0.92198709    -0.24200
H624        H  0.39992875  0.62638086  0.94820833     0.14800
H625        H  0.48541177  0.65560672  0.06500481     0.14800
C626        C  0.41408494  0.62102302  0.09018606    -0.24200
H627        H  0.44715437  0.64573797  0.89977961     0.05000
H628        H  0.48504998  0.63984692  0.91454759     0.08200
H629        H  0.48878891  0.68408626  0.91782528     0.08200
H630        H  0.39387948  0.59153826  0.09192681     0.08200
H631        H  0.40068440  0.63672561  0.09944815     0.08200
H632        H  0.43653786  0.62730302  0.11227509     0.05000
C633        C  0.02530076  0.74103872  0.79236457    -0.20800
C634        C  0.48771798  0.72897773  0.79758535    -0.07400
C635        C  0.47395425  0.73095296  0.83685745     0.13500
C636        C  0.49782300  0.74273204  0.87066334    -0.20900
C637        C  0.03449191  0.75031330  0.86634238    -0.07400
C638        C  0.04880492  0.75112346  0.82619997     0.13500
C639        C  0.08815977  0.76095266  0.81754402    -0.24200
H640        H  0.03582257  0.73971507  0.76205136     0.14800
H641        H  0.48677201  0.74236701  0.90113967     0.14800
C642        C  0.43394058  0.71947292  0.84338092    -0.24200
H643        H  0.10063889  0.78354388  0.79510520     0.05000
H644        H  0.10556773  0.76999518  0.84520406     0.08200
H645        H  0.08888358  0.73712777  0.80410229     0.08200
H646        H  0.41639110  0.69015734  0.83613315     0.08200
H647        H  0.42636522  0.73557658  0.82318440     0.08200
H648        H  0.42807921  0.72381509  0.87576654     0.05000
C649        C  0.31258920  0.63033831  0.86847271    -0.20800
C650        C  0.30542319  0.59793823  0.88752063    -0.07400
C651        C  0.30588619  0.57003292  0.86344611     0.13500
C652        C  0.31731652  0.57698899  0.82229250    -0.20900
C653        C  0.32748339  0.61056258  0.80448365    -0.07400
C654        C  0.32353950  0.63698006  0.82722599     0.13500
C655        C  0.33318942  0.67314564  0.80919267    -0.24200
H656        H  0.31152067  0.65149987  0.88641604     0.14800
H657        H  0.31958804  0.55652624  0.80420351     0.14800
C658        C  0.29453961  0.53293514  0.88035415    -0.24200
H659        H  0.33012271  0.69117407  0.83204870     0.05000
H660        H  0.31475442  0.66912281  0.78300723     0.08200
H661        H  0.36221847  0.68704415  0.79838677     0.08200
H662        H  0.26676081  0.52112636  0.89475158     0.08200
H663        H  0.31481555  0.53471742  0.90320727     0.08200
H664        H  0.29318690  0.51387868  0.85576888     0.05000
C665        C  0.19988192  0.82943424  0.81545363    -0.20800
C666        C  0.21755565  0.81274239  0.79548038    -0.07400
C667        C  0.22538098  0.78907062  0.81814717     0.13500
C668        C  0.21098406  0.77908977  0.85811215    -0.20900
C669        C  0.18980329  0.79271700  0.87621345    -0.07400
C670        C  0.18563458  0.81960110  0.85546018     0.13500
C671        C  0.16437979  0.83684339  0.87309363    -0.24200
H672        H  0.19438256  0.84809717  0.79860824     0.14800
H673        H  0.21496922  0.75933772  0.87473348     0.14800
C674        C  0.24869326  0.77407291  0.80059190    -0.24200
H675        H  0.14215157  0.83272871  0.85174456     0.05000
H676        H  0.18315182  0.86654228  0.87653254     0.08200
H677        H  0.15146300  0.82570935  0.90334818     0.08200
H678        H  0.27515436  0.79662054  0.78877072     0.08200
H679        H  0.23405973  0.75429483  0.77550621     0.08200
H680        H  0.25522228  0.75957663  0.82432164     0.05000
C681        C  0.04685947  0.73669362  0.66433030    -0.20800
C682        C  0.03052340  0.69893185  0.66802411    -0.07400
C683        C  0.05328163  0.68336533  0.67160110     0.13500
C684        C  0.09193324  0.70615639  0.67049446    -0.20900
C685        C  0.10826952  0.74426708  0.66782020    -0.07400
C686        C  0.08498739  0.75958315  0.66517264     0.13500
C687        C  0.09944277  0.80002056  0.66367251    -0.24200
H688        H  0.02935246  0.74874227  0.66271088     0.14800
H689        H  0.10944077  0.69419648  0.67288074     0.14800
C690        C  0.03697250  0.64298436  0.67593795    -0.24200
H691        H  0.07713218  0.80649676  0.65890375     0.05000
H692        H  0.11940327  0.81229784  0.63797524     0.08200
H693        H  0.11276402  0.81287717  0.69328157     0.08200
H694        H  0.01881043  0.62880755  0.64939109     0.08200
H695        H  0.02069548  0.63370111  0.70492652     0.08200
H696        H  0.05865548  0.63521711  0.67687156     0.05000
C697        C  0.29647656  0.97402693  0.64636730    -0.20800
C698        C  0.31321328  0.95492832  0.66132135    -0.07400
C699        C  0.34919648  0.97487772  0.67734063     0.13500
C700        C  0.36638903  0.51311984  0.68034975    -0.20900
C701        C  0.34873550  0.53218982  0.66739313    -0.07400
C702        C  0.31351813  0.51200693  0.64883883     0.13500
C703        C  0.29337060  0.52979339  0.63093102    -0.24200
H704        H  0.26937287  0.95888117  0.63272097     0.14800
H705        H  0.39338857  0.52806453  0.69417798     0.14800
C706        C  0.36897112  0.95598837  0.69278136    -0.24200
H707        H  0.26814198  0.50997301  0.61429716     0.05000
H708        H  0.31147213  0.55089848  0.60854446     0.08200
H709        H  0.28443088  0.54195205  0.65576452     0.08200
H710        H  0.37359429  0.94122590  0.66704769     0.08200
H711        H  0.35230790  0.93649187  0.71728687     0.08200
H712        H  0.39626231  0.97554215  0.70581765     0.05000
C713        C  0.33936609  0.78472531  0.70990225    -0.20800
C714        C  0.33411540  0.79399091  0.67014272    -0.07400
C715        C  0.34799653  0.78335431  0.63587586     0.15900
C716        C  0.36308151  0.76075661  0.64202861    -0.20900
C717        C  0.36579182  0.74940754  0.68148361    -0.07400
C718        C  0.35570674  0.76318770  0.71603310     0.13500
C719        C  0.36055594  0.75472331  0.75950571    -0.24200
H720        H  0.32910358  0.79297758  0.73634263     0.14800
H721        H  0.37182464  0.75089155  0.61567191     0.14800
C722        C  0.34507022  0.79375761  0.59248603    -0.24200
H723        H  0.37755242  0.78044939  0.77672310     0.05000
H724        H  0.37467534  0.73862695  0.76091172     0.08200
H725        H  0.33323001  0.73941496  0.77486384     0.08200
H726        H  0.36066253  0.82376680  0.58956590     0.08200
H727        H  0.31586560  0.78350183  0.58470112     0.08200
H728        H  0.35650790  0.78227492  0.56956935     0.05000
C729        C  0.16693098  0.84479667  0.48122017    -0.20800
C730        C  0.19020764  0.87710840  0.46000224    -0.07400
C731        C  0.21788122  0.90704823  0.48251108     0.13500
C732        C  0.22416892  0.90224673  0.52364597    -0.20900
C733        C  0.20297659  0.86897531  0.54348075    -0.07400
C734        C  0.17271106  0.84052912  0.52278899     0.13500
C735        C  0.14743261  0.80513391  0.54380501    -0.24200
H736        H  0.14498470  0.82208879  0.46483113     0.14800
H737        H  0.24685841  0.92425087  0.54008202     0.14800
C738        C  0.24123929  0.94417252  0.46392463    -0.24200
H739        H  0.12656078  0.78504613  0.52238843     0.05000
H740        H  0.13257719  0.81008613  0.56923704     0.08200
H741        H  0.16339976  0.79313520  0.55649644     0.08200
H742        H  0.22330144  0.95336717  0.44981487     0.08200
H743        H  0.26049389  0.94359400  0.44054243     0.08200
H744        H  0.25830260  0.96472191  0.48749551     0.05000
C745        C  0.48303335  0.77566094  0.36107507    -0.20800
C746        C  0.46263924  0.79008304  0.34373324    -0.07400
C747        C  0.48185596  0.82517649  0.32637504     0.13500
C748        C  0.02080142  0.84383437  0.32498380    -0.20900
C749        C  0.04127140  0.82868259  0.34108669    -0.07400
C750        C  0.02166318  0.79439580  0.36084242     0.13500
C751        C  0.04067102  0.77706072  0.38248399    -0.24200
H752        H  0.46844187  0.74918871  0.37522011     0.14800
H753        H  0.03523861  0.87001685  0.31006489     0.14800
C754        C  0.46155140  0.84245399  0.30797481    -0.24200
H755        H  0.02087654  0.75248819  0.39981234     0.05000
H756        H  0.06076015  0.79652781  0.40498855     0.08200
H757        H  0.05474022  0.76824550  0.35980485     0.08200
H758        H  0.44537025  0.84706029  0.33222798     0.08200
H759        H  0.44275435  0.82449558  0.28356820     0.08200
H760        H  0.48074183  0.86914926  0.29398295     0.05000
C761        C  0.26891988  0.83098821  0.29357858    -0.20800
C762        C  0.25923221  0.84339671  0.32918748    -0.07400
C763        C  0.27262883  0.84055682  0.36774194     0.13500
C764        C  0.29383647  0.82356185  0.37019504    -0.20900
C765        C  0.30104897  0.80827382  0.33520793    -0.07400
C766        C  0.28974956  0.81338873  0.29607648     0.13500
C767        C  0.29892764  0.80048806  0.25659232    -0.24200
H768        H  0.25905009  0.83380198  0.26392082     0.14800
H769        H  0.30213968  0.81950781  0.40023806     0.14800
C770        C  0.26333900  0.85423301  0.40663190    -0.24200
H771        H  0.31360225  0.82378441  0.23535572     0.05000
H772        H  0.27314122  0.77971062  0.24170395     0.08200
H773        H  0.31712771  0.78886343  0.26132967     0.08200
H774        H  0.23308193  0.83951906  0.41175920     0.08200
H775        H  0.27332813  0.88374467  0.40398731     0.08200
H776        H  0.27625510  0.85006902  0.43411387     0.05000
C777        C  0.22605381  0.57144629  0.31597422    -0.20800
C778        C  0.24655271  0.58725887  0.35160682    -0.07400
C779        C  0.24333551  0.56506884  0.38501276     0.13500
C780        C  0.22182085  0.52712787  0.38079454    -0.20900
C781        C  0.20333872  0.51075171  0.34384147    -0.07400
C782        C  0.20422445  0.53353504  0.31163587     0.13500
C783        C  0.18407817  0.51847777  0.27166932    -0.24200
H784        H  0.22825389  0.58892023  0.29074098     0.14800
H785        H  0.22108812  0.51008992  0.40577420     0.14800
C786        C  0.26371468  0.58145064  0.42444759    -0.24200
H787        H  0.18810764  0.54038871  0.25029552     0.05000
H788        H  0.15408102  0.00160490  0.27791046     0.08200
H789        H  0.19422572  0.50185828  0.25569507     0.08200
H790        H  0.25493031  0.60018586  0.43776760     0.08200
H791        H  0.29380486  0.59683646  0.41817118     0.08200
H792        H  0.25825346  0.56033873  0.44765913     0.05000
C793        C  0.33798432  0.67976228  0.19900141    -0.20800
C794        C  0.31210735  0.68576130  0.22026845    -0.07400
C795        C  0.28097370  0.68196164  0.19881766     0.13500
C796        C  0.27504211  0.66884545  0.15825658    -0.20900
C797        C  0.29940261  0.65991838  0.13851930    -0.07400
C798        C  0.33191840  0.66665943  0.15859171     0.13500
C799        C  0.35907361  0.65761907  0.13889059    -0.24200
H800        H  0.36215845  0.68319061  0.21478975     0.14800
H801        H  0.25054725  0.66435551  0.14223674     0.14800
C802        C  0.25353783  0.69114958  0.21794044    -0.24200
H803        H  0.38191090  0.66289178  0.15996335     0.05000
H804        H  0.37149359  0.67458501  0.11116601     0.08200
H805        H  0.34485162  0.62837073  0.13027194     0.08200
H806        H  0.26819108  0.71905847  0.23101985     0.08200
H807        H  0.23717835  0.67132384  0.24225936     0.08200
H808        H  0.23367348  0.69018276  0.19494393     0.05000
C809        C  0.24251067  0.74378169  0.46759495    -0.20800
C810        C  0.26192373  0.72512679  0.47237172    -0.07400
C811        C  0.26623364  0.71459240  0.51200631     0.13500
C812        C  0.25442560  0.72652040  0.54636165    -0.20900
C813        C  0.24007812  0.74992916  0.54172746    -0.07400
C814        C  0.23188171  0.75677928  0.50185793     0.13500
C815        C  0.21240009  0.77804597  0.49509357    -0.24200
H816        H  0.23853407  0.75101520  0.43694991     0.14800
H817        H  0.25981575  0.72050516  0.57697569     0.14800
C818        C  0.28414480  0.69177673  0.51819168    -0.24200
H819        H  0.20670707  0.77905141  0.46198267     0.05000
H820        H  0.22925295  0.80649603  0.50595358     0.08200
H821        H  0.18561741  0.76466516  0.51168964     0.08200
H822        H  0.31335999  0.70668865  0.50802576     0.08200
H823        H  0.26922107  0.66608366  0.50028166     0.08200
H824        H  0.28367181  0.68472236  0.55108404     0.05000
C825        C  0.35014548  0.66020609  0.48962387    -0.20800
C826        C  0.38100318  0.68664630  0.46845285    -0.07400
C827        C  0.41555651  0.70441300  0.48778316     0.13500
C828        C  0.41791641  0.69706648  0.52910737    -0.20900
C829        C  0.38646075  0.67275983  0.55165901    -0.07400
C830        C  0.35216368  0.65316553  0.53118314     0.13500
C831        C  0.31703919  0.62662331  0.55299389    -0.24200
H832        H  0.32369519  0.64693953  0.47435644     0.14800
H833        H  0.44439828  0.71132919  0.54424965     0.14800
C834        C  0.44989126  0.73088920  0.46485678    -0.24200
H835        H  0.29292020  0.61531760  0.53218791     0.05000
H836        H  0.31132737  0.64041273  0.57897451     0.08200
H837        H  0.31944140  0.60342322  0.56450413     0.08200
H838        H  0.44751880  0.75433399  0.45418824     0.08200
H839        H  0.45403507  0.71686731  0.43800272     0.08200
H840        H  0.47472768  0.74164355  0.48447488     0.05000
Fe841      Fe  0.85366904  0.18834515  0.34090940     1.65800
Fe842      Fe  0.85798437  0.25726157  0.39654031     1.73200
Fe843      Fe  0.78015589  0.19983429  0.34553811     1.54400
O844        O  0.78872094  0.18636445  0.28674909    -0.82200
O845        O  0.81684229  0.23610686  0.44012601    -0.80500
O846        O  0.84730128  0.19989660  0.28143743    -0.84700
O847        O  0.80449731  0.13862246  0.33701994    -0.79500
O848        O  0.79426324  0.25037142  0.32433091    -0.81300
O849        O  0.88245451  0.23209860  0.42719959    -0.84100
C850        C  0.77235585  0.12671978  0.35207608     0.96700
C851        C  0.81660404  0.19192013  0.26525772     1.04100
O852        O  0.83058602  0.21548171  0.36086403    -1.13000
O853        O  0.90234865  0.28182724  0.35639333    -0.75500
O854        O  0.90708406  0.23313300  0.34244958    -0.79000
O855        O  0.76129436  0.14771860  0.36558109    -0.79700
C856        C  0.92161063  0.26743926  0.34642341     0.95600
O857        O  0.85919600  0.17624494  0.40027104    -0.77600
O858        O  0.83515584  0.28641299  0.37103612    -0.82800
C859        C  0.78244333  0.22310072  0.43644644     0.98200
C860        C  0.81198290  0.28066683  0.34276935     1.04100
O861        O  0.76586376  0.21187343  0.40238424    -0.78500
C862        C  0.87454477  0.19904523  0.42929865     1.02400
Fe863      Fe  0.71236843  0.34743403  0.67256607     1.65800
Fe864      Fe  0.77906148  0.34909724  0.61255069     1.73200
Fe865      Fe  0.72426133  0.27488439  0.67032265     1.54400
O866        O  0.71618214  0.28738212  0.73007355    -0.82200
O867        O  0.75563881  0.30597846  0.57241913    -0.80500
O868        O  0.72704389  0.34453945  0.73235535    -0.84700
O869        O  0.66306712  0.29980169  0.68157071    -0.79500
O870        O  0.77722750  0.28955584  0.68584307    -0.81300
O871        O  0.75088563  0.37061455  0.58200004    -0.84100
C872        C  0.64921356  0.26748924  0.66834447     0.96700
C873        C  0.72161376  0.31561095  0.75008031     1.04100
O874        O  0.73905214  0.32382209  0.65209221    -1.13000
O875        O  0.80594124  0.39565864  0.64870736    -0.75500
O876        O  0.75684329  0.39973334  0.66641155    -0.79000
O877        O  0.66943336  0.25479851  0.65614175    -0.79700
C878        C  0.79126889  0.41444149  0.65959578     0.95600
O879        O  0.69621183  0.34952315  0.61326264    -0.77600
O880        O  0.81109547  0.32858571  0.63669099    -0.82800
C881        C  0.74125162  0.27205352  0.57761400     0.98200
C882        C  0.80657621  0.30583701  0.66459012     1.04100
O883        O  0.73116486  0.25721705  0.61271133    -0.78500
C884        C  0.71727374  0.36279332  0.58205738     1.02400
Fe885      Fe  0.85401962  0.13949433  0.67700407     1.65800
Fe886      Fe  0.92049973  0.13395598  0.72657503     1.73200
Fe887      Fe  0.94049180  0.20874746  0.67231446     1.54400
O888        O  0.91566235  0.19889211  0.61487516    -0.82200
O889        O  0.94011207  0.17527881  0.76923816    -0.80500
O890        O  0.86732604  0.14281145  0.61594806    -0.84700
O891        O  0.85491181  0.18926106  0.67418457    -0.79500
O892        O  0.97228619  0.18861949  0.64896468    -0.81300
O893        O  0.87073860  0.10928071  0.75871361    -0.84100
C894        C  0.87760834  0.22198144  0.68436823     0.96700
C895        C  0.89004087  0.17111176  0.59669190     1.04100
O896        O  0.90513039  0.16099218  0.69199136    -1.13000
O897        O  0.90017105  0.09044465  0.68572702    -0.75500
O898        O  0.84589624  0.08670629  0.67716818    -0.79000
O899        O  0.91065448  0.23227677  0.69362463    -0.79700
C900        C  0.86619025  0.07216635  0.67637425     0.95600
O901        O  0.83955370  0.13584724  0.73774218    -0.77600
O902        O  0.97407806  0.15720310  0.70163842    -0.82800
C903        C  0.96348847  0.20847850  0.76318196     0.98200
C904        C  0.98982324  0.17870407  0.67172310     1.04100
O905        O  0.96923596  0.22337356  0.72793720    -0.78500
C906        C  0.84674593  0.11897252  0.76459406     1.02400
Fe907      Fe  0.65500581  0.27905516  0.00501142     1.65800
Fe908      Fe  0.59307132  0.21270744  0.94285748     1.73200
Fe909      Fe  0.56995361  0.26798134  0.99707597     1.54400
O910        O  0.58719005  0.27625375  0.05818329    -0.82200
O911        O  0.57161492  0.23265893  0.90139587    -0.80500
O912        O  0.63420533  0.26599585  0.06408258    -0.84700
O913        O  0.65652200  0.32842940  0.01063787    -0.79500
O914        O  0.53031419  0.21576097  0.01141425    -0.81300
O915        O  0.64324534  0.24240575  0.91175540    -0.84100
C916        C  0.63802144  0.34181770  0.99607202     0.96700
C917        C  0.61014241  0.27257205  0.08011003     1.04100
O918        O  0.60551357  0.25268460  0.98191087    -1.13000
O919        O  0.61358304  0.18718865  0.97909059    -0.75500
O920        O  0.66374855  0.23485797  0.00321898    -0.79000
O921        O  0.60542633  0.32190651  0.98352730    -0.79700
C922        C  0.64511582  0.20108297  0.99539885     0.95600
O923        O  0.67656238  0.29432440  0.94680216    -0.77600
O924        O  0.54041213  0.18017257  0.96797160    -0.82800
C925        C  0.55365252  0.24929506  0.90394888     0.98200
C926        C  0.52009478  0.18549819  0.99349944     1.04100
O927        O  0.54902154  0.26196788  0.93781133    -0.78500
C928        C  0.66893600  0.27548855  0.91399285     1.02400
Fe929      Fe  0.80222527  0.13271782  0.01090733     1.65800
Fe930      Fe  0.73096715  0.06632698  0.06179725     1.73200
Fe931      Fe  0.79091117  0.04943011  0.00950382     1.54400
O932        O  0.80679943  0.07377283  0.95229372    -0.82200
O933        O  0.75236321  0.04713229  0.10454225    -0.80500
O934        O  0.79149695  0.11698098  0.95066999    -0.84700
O935        O  0.85262755  0.13328431  0.00630787    -0.79500
O936        O  0.74038883  0.01595529  0.98489529    -0.81300
O937        O  0.75492009  0.11533052  0.09474784    -0.84100
C938        C  0.86469341  0.11296603  0.01921304     0.96700
C939        C  0.80014549  0.09553203  0.93259212     1.04100
O940        O  0.77461263  0.08262488  0.02763792    -1.13000
O941        O  0.70707075  0.08597747  0.02145784    -0.75500
O942        O  0.75662392  0.14034403  0.01313804    -0.79000
O943        O  0.84318494  0.08134646  0.03245867    -0.79700
C944        C  0.72181486  0.11972198  0.01396395     0.95600
O945        O  0.81262985  0.14819368  0.07102177    -0.77600
O946        O  0.70301876  0.01392902  0.03499339    -0.82800
C947        C  0.76465884  0.02546771  0.09912294     0.98200
C948        C  0.71084181  0.49878465  0.00539139     1.04100
O949        O  0.77625677  0.02082272  0.06445968    -0.78500
C950        C  0.78844742  0.14026152  0.09903883     1.02400
Fe951      Fe  0.65131183  0.33714571  0.33628218     1.65800
Fe952      Fe  0.64553485  0.40145312  0.28300988     1.73200
Fe953      Fe  0.72385968  0.42199946  0.33449951     1.54400
O954        O  0.71409978  0.40124770  0.39378282    -0.82200
O955        O  0.68750405  0.42297315  0.24054365    -0.80500
O956        O  0.65719828  0.35360842  0.39721829    -0.84700
O957        O  0.70026712  0.33624933  0.33926435    -0.79500
O958        O  0.70961535  0.45937060  0.35445881    -0.81300
O959        O  0.62327243  0.35291669  0.24942190    -0.84100
C960        C  0.73299093  0.35679523  0.32687537     0.96700
C961        C  0.68663548  0.37772085  0.41445485     1.04100
O962        O  0.67357878  0.38729639  0.31821969    -1.13000
O963        O  0.59977462  0.38014150  0.32189560    -0.75500
O964        O  0.59803793  0.32861444  0.33622109    -0.79000
O965        O  0.74430040  0.38896507  0.31539180    -0.79700
C966        C  0.58210136  0.34723740  0.33343360     0.95600
O967        O  0.64589066  0.31986987  0.27591387    -0.77600
O968        O  0.66651021  0.45289793  0.31030996    -0.82800
C969        C  0.72212275  0.44276974  0.24401887     0.98200
C970        C  0.69144040  0.47166418  0.33651076     1.04100
O971        O  0.73895155  0.44673982  0.27756166    -0.78500
C972        C  0.63118549  0.32757055  0.24664123     1.02400
C973        C  0.77633774  0.02089150  0.17227711    -0.20800
C974        C  0.76286668  0.00338128  0.13436056    -0.07400
C975        C  0.74203433  0.46508318  0.13247610     0.13500
C976        C  0.73224810  0.44544120  0.16914898    -0.20900
C977        C  0.74267621  0.46318799  0.20741725    -0.07400
C978        C  0.76676117  0.50118517  0.20902678     0.13500
C979        C  0.78039821  0.02143303  0.24924987    -0.24200
H980        H  0.79261239  0.05030289  0.17330319     0.14800
H981        H  0.71409340  0.41624042  0.16816583     0.14800
C982        C  0.72705597  0.44503492  0.09243171    -0.24200
H983        H  0.79801065  0.05114665  0.24456408     0.05000
H984        H  0.79705526  0.51169888  0.26531369     0.08200
H985        H  0.75686710  0.01702186  0.26919694     0.08200
H986        H  0.75004582  0.45059944  0.07088505     0.08200
H987        H  0.70882195  0.45391227  0.07858592     0.08200
H988        H  0.71062793  0.41518229  0.09684215     0.05000
C989        C  0.59040729  0.29803795  0.18705103    -0.20800
C990        C  0.62322958  0.30705599  0.20731058    -0.07400
C991        C  0.64926137  0.29984978  0.18762034     0.13500
C992        C  0.64273766  0.28596372  0.14721586    -0.20900
C993        C  0.61113406  0.27953914  0.12546408    -0.07400
C994        C  0.58375770  0.28417219  0.14665569     0.13500
C995        C  0.54758313  0.27523287  0.12736549    -0.24200
H996        H  0.57025081  0.30303115  0.20259109     0.14800
H997        H  0.66366901  0.28211544  0.13181312     0.14800
C998        C  0.68512849  0.30900375  0.20782401    -0.24200
H999        H  0.52860567  0.27738374  0.14998588     0.05000
H1000       H  0.53362149  0.24692352  0.11533006     0.08200
H1001       H  0.55214239  0.29452540  0.10226129     0.08200
H1002       H  0.67966117  0.29267105  0.23612063     0.08200
H1003       H  0.70063951  0.33837053  0.21583336     0.08200
H1004       H  0.70290790  0.30303584  0.18727455     0.05000
C1005       C  0.70830872  0.44180102  0.98370078    -0.20800
C1006       C  0.68864510  0.45883127  0.99774779    -0.07400
C1007       C  0.65100851  0.43681756  0.00847334     0.13500
C1008       C  0.63459346  0.39863768  0.00573199    -0.20900
C1009       C  0.65528502  0.38196187  0.99439765    -0.07400
C1010       C  0.69266246  0.40405463  0.98298063     0.13500
C1011       C  0.71685942  0.38841193  0.97063573    -0.24200
H1012       H  0.73722809  0.45815704  0.97578310     0.14800
H1013       H  0.60590837  0.38170781  0.01433890     0.14800
C1014       C  0.62802655  0.45315207  0.02273504    -0.24200
H1015       H  0.74442185  0.40966429  0.95965040     0.05000
H1016       H  0.70399547  0.36839238  0.94540908     0.08200
H1017       H  0.72130230  0.37513984  0.99739445     0.08200
H1018       H  0.62916856  0.47255241  0.99938653     0.08200
H1019       H  0.63828587  0.46741587  0.05261609     0.08200
H1020       H  0.59872726  0.43204689  0.02729541     0.05000
C1021       C  0.65457351  0.14895988  0.97580830    -0.20800
C1022       C  0.66180345  0.17771327  0.00336393    -0.07400
C1023       C  0.68682603  0.18498196  0.03594318     0.13500
C1024       C  0.70491779  0.16471929  0.03883061    -0.20900
C1025       C  0.69877275  0.13712674  0.01039575    -0.07400
C1026       C  0.67286008  0.12871676  0.97887847     0.13500
C1027       C  0.66579974  0.09962239  0.94747071    -0.24200
H1028       H  0.63562805  0.14322029  0.95070920     0.14800
H1029       H  0.72452154  0.17077827  0.06333121     0.14800
C1030       C  0.69438343  0.21362068  0.06831848    -0.24200
H1031       H  0.64541063  0.09703299  0.92422677     0.05000
H1032       H  0.65490381  0.07304523  0.96299077     0.08200
H1033       H  0.69186152  0.10628621  0.93112068     0.08200
H1034       H  0.66806734  0.20879725  0.08253493     0.08200
H1035       H  0.70907900  0.24106381  0.05452009     0.08200
H1036       H  0.71203694  0.21320908  0.09327813     0.05000
C1037       C  0.91857786  0.13214374  0.97364507    -0.20800
C1038       C  0.90438259  0.12525800  0.01386748    -0.07400
C1039       C  0.92834935  0.13098866  0.04690816     0.13500
C1040       C  0.96657153  0.14800210  0.03937912    -0.20900
C1041       C  0.98099971  0.15733114  0.99927411    -0.07400
C1042       C  0.95641298  0.14728165  0.96585018     0.13500
C1043       C  0.97007918  0.15458036  0.92197196    -0.24200
H1044       H  0.89993750  0.12637826  0.94816109     0.14800
H1045       H  0.98537894  0.15563536  0.06500566     0.14800
C1046       C  0.91405013  0.12109432  0.09015937    -0.24200
H1047       H  0.94717896  0.14567153  0.89975200     0.05000
H1048       H  0.98504480  0.13975352  0.91457754     0.08200
H1049       H  0.98882822  0.18401381  0.91778024     0.08200
H1050       H  0.89382604  0.09161559  0.09191838     0.08200
H1051       H  0.90067114  0.13682309  0.09938782     0.08200
H1052       H  0.93649350  0.12737094  0.11226083     0.05000
C1053       C  0.52531204  0.24102984  0.79241355    -0.20800
C1054       C  0.98779129  0.22892505  0.79755393    -0.07400
C1055       C  0.97403300  0.23090204  0.83682933     0.13500
C1056       C  0.99789977  0.24266715  0.87063713    -0.20900
C1057       C  0.53450245  0.25032611  0.86638738    -0.07400
C1058       C  0.54881998  0.25114165  0.82624646     0.13500
C1059       C  0.58818410  0.26100293  0.81759201    -0.24200
H1060       H  0.53583873  0.23971308  0.76210060     0.14800
H1061       H  0.98684838  0.24230471  0.90111243     0.14800
C1062       C  0.93402475  0.21944233  0.84335534    -0.24200
H1063       H  0.60064458  0.28358692  0.79514305     0.05000
H1064       H  0.60559227  0.27006933  0.84525151     0.08200
H1065       H  0.58893268  0.23718620  0.80416432     0.08200
H1066       H  0.91646251  0.19012848  0.83610820     0.08200
H1067       H  0.92646157  0.23555667  0.82316097     0.08200
H1068       H  0.92816826  0.22378815  0.87574153     0.05000
C1069       C  0.81263056  0.13037587  0.86845258    -0.20800
C1070       C  0.80539878  0.09795235  0.88749115    -0.07400
C1071       C  0.80582297  0.07002837  0.86341575     0.13500
C1072       C  0.81728632  0.07698611  0.82227164    -0.20900
C1073       C  0.82751281  0.11057763  0.80447385    -0.07400
C1074       C  0.82360577  0.13701765  0.82721455     0.13500
C1075       C  0.83331411  0.17320241  0.80918779    -0.24200
H1076       H  0.81159262  0.15155252  0.88639768     0.14800
H1077       H  0.81952795  0.05650745  0.80418107     0.14800
C1078       C  0.79439428  0.03290829  0.88031327    -0.24200
H1079       H  0.83028140  0.19124845  0.83204782     0.05000
H1080       H  0.81488849  0.16921220  0.78300383     0.08200
H1081       H  0.86234206  0.18706666  0.79837911     0.08200
H1082       H  0.76661005  0.02114212  0.89468814     0.08200
H1083       H  0.81463481  0.03463883  0.90318368     0.08200
H1084       H  0.79301727  0.01384356  0.85572522     0.05000
C1085       C  0.69991937  0.32944144  0.81544270    -0.20800
C1086       C  0.71754940  0.31270711  0.79546648    -0.07400
C1087       C  0.72531845  0.28899229  0.81812692     0.13500
C1088       C  0.71092273  0.27903119  0.85809377    -0.20900
C1089       C  0.68979062  0.29271037  0.87620199    -0.07400
C1090       C  0.68566411  0.31961937  0.85544739     0.13500
C1091       C  0.66444026  0.33689770  0.87307063    -0.24200
H1092       H  0.69445787  0.34813145  0.79860049     0.14800
H1093       H  0.71486966  0.25925405  0.87471271     0.14800
C1094       C  0.74856439  0.27392171  0.80056398    -0.24200
H1095       H  0.64222721  0.33280921  0.85171201     0.05000
H1096       H  0.68323686  0.36659181  0.87651174     0.08200
H1097       H  0.65150591  0.32576880  0.90331968     0.08200
H1098       H  0.77503939  0.29643098  0.78871851     0.08200
H1099       H  0.73388671  0.25413856  0.77549661     0.08200
H1100       H  0.75506945  0.25940827  0.82429511     0.05000
C1101       C  0.54688429  0.23666693  0.66428572    -0.20800
C1102       C  0.53054889  0.19891005  0.66804867    -0.07400
C1103       C  0.55331150  0.18335243  0.67168341     0.13500
C1104       C  0.59196329  0.20614462  0.67055312    -0.20900
C1105       C  0.60829623  0.24425079  0.66781269    -0.07400
C1106       C  0.58501174  0.25955978  0.66511882     0.13500
C1107       C  0.59946449  0.29999488  0.66357203    -0.24200
H1108       H  0.52937764  0.24871346  0.66262735     0.14800
H1109       H  0.60947413  0.19419185  0.67298107     0.14800
C1110       C  0.53700888  0.14298024  0.67611344    -0.24200
H1111       H  0.57715496  0.30646494  0.65876009     0.05000
H1112       H  0.61943909  0.31225689  0.63788677     0.08200
H1113       H  0.61277178  0.31287286  0.69317907     0.08200
H1114       H  0.51883373  0.12875491  0.64959154     0.08200
H1115       H  0.52074809  0.13374644  0.70511715     0.08200
H1116       H  0.55869496  0.13521868  0.67708087     0.05000
C1117       C  0.79647820  0.47401957  0.64639856    -0.20800
C1118       C  0.81322795  0.45493046  0.66134540    -0.07400
C1119       C  0.84921229  0.47489043  0.67735994     0.13500
C1120       C  0.86636779  0.01312850  0.68035098    -0.20900
C1121       C  0.84874238  0.03220489  0.66732702    -0.07400
C1122       C  0.81356217  0.01203916  0.64869221     0.13500
C1123       C  0.79346851  0.02984717  0.63069854    -0.24200
H1124       H  0.76937365  0.45886689  0.63275598     0.14800
H1125       H  0.89334160  0.02806492  0.69424014     0.14800
C1126       C  0.86900167  0.45601303  0.69279223    -0.24200
H1127       H  0.76827293  0.01003910  0.61400506     0.05000
H1128       H  0.81162496  0.05095975  0.60834729     0.08200
H1129       H  0.78448414  0.04200374  0.65548904     0.08200
H1130       H  0.87362846  0.44125635  0.66705479     0.08200
H1131       H  0.85234696  0.43651297  0.71729862     0.08200
H1132       H  0.89629210  0.47557385  0.70582475     0.05000
C1133       C  0.83943575  0.28475740  0.70990940    -0.20800
C1134       C  0.83415648  0.29399597  0.67014757    -0.07400
C1135       C  0.84801808  0.28334067  0.63587906     0.15900
C1136       C  0.86311314  0.26075256  0.64203453    -0.20900
C1137       C  0.86585505  0.24943176  0.68149326    -0.07400
C1138       C  0.85579014  0.26323096  0.71604217     0.13500
C1139       C  0.86067537  0.25479798  0.75951599    -0.24200
H1140       H  0.82918695  0.29302315  0.73635056     0.14800
H1141       H  0.87183711  0.25087010  0.61567695     0.14800
C1142       C  0.84505702  0.29371161  0.59248536    -0.24200
H1143       H  0.87768719  0.28053672  0.77670541     0.05000
H1144       H  0.87479379  0.23870008  0.76092168     0.08200
H1145       H  0.83336219  0.23950239  0.77490406     0.08200
H1146       H  0.86064721  0.32371828  0.58953602     0.08200
H1147       H  0.81584627  0.28345141  0.58472918     0.08200
H1148       H  0.85647495  0.28221094  0.56956682     0.05000
C1149       C  0.66694850  0.34482712  0.48123500    -0.20800
C1150       C  0.69022618  0.37713687  0.46001646    -0.07400
C1151       C  0.71793445  0.40706159  0.48251220     0.13500
C1152       C  0.72423102  0.40225184  0.52364044    -0.20900
C1153       C  0.70302706  0.36898406  0.54347779    -0.07400
C1154       C  0.67274823  0.34054692  0.52279227     0.13500
C1155       C  0.64747365  0.30514635  0.54379912    -0.24200
H1156       H  0.64498541  0.32212849  0.46485277     0.14800
H1157       H  0.74693675  0.42424573  0.54006861     0.14800
C1158       C  0.74132704  0.44417677  0.46391719    -0.24200
H1159       H  0.62660610  0.28505938  0.52237827     0.05000
H1160       H  0.63261243  0.31009174  0.56922737     0.08200
H1161       H  0.66344265  0.29314963  0.55649028     0.08200
H1162       H  0.72341350  0.45340787  0.44982227     0.08200
H1163       H  0.76055397  0.44356311  0.44052174     0.08200
H1164       H  0.75842316  0.46471766  0.48747932     0.05000
C1165       C  0.98300320  0.27563807  0.36113599    -0.20800
C1166       C  0.96260614  0.29004881  0.34377435    -0.07400
C1167       C  0.98182283  0.32515232  0.32643848     0.13500
C1168       C  0.52077379  0.34383202  0.32481257    -0.20900
C1169       C  0.54125256  0.32874077  0.34104935    -0.07400
C1170       C  0.52165351  0.29451071  0.36092243     0.13500
C1171       C  0.54067401  0.27726494  0.38272027    -0.24200
H1172       H  0.96841280  0.24916311  0.37527832     0.14800
H1173       H  0.53520483  0.36997082  0.30979914     0.14800
C1174       C  0.96151822  0.34243397  0.30804899    -0.24200
H1175       H  0.52088532  0.25274558  0.40012985     0.05000
H1176       H  0.56075449  0.29681220  0.40517442     0.08200
H1177       H  0.55475664  0.26838797  0.36013378     0.08200
H1178       H  0.94532850  0.34702458  0.33230522     0.08200
H1179       H  0.94272989  0.32448711  0.28362984     0.08200
H1180       H  0.98070918  0.36913832  0.29407648     0.05000
C1181       C  0.76877373  0.33086297  0.29361744    -0.20800
C1182       C  0.75915215  0.34332494  0.32922935    -0.07400
C1183       C  0.77258548  0.34050457  0.36776815     0.13500
C1184       C  0.79378387  0.32349694  0.37020096    -0.20900
C1185       C  0.80095065  0.30817572  0.33521021    -0.07400
C1186       C  0.78959181  0.31325079  0.29609363     0.13500
C1187       C  0.79869218  0.30029775  0.25659790    -0.24200
H1188       H  0.75886650  0.33365248  0.26397286     0.14800
H1189       H  0.80212247  0.31946708  0.40023434     0.14800
C1190       C  0.76334707  0.35421817  0.40666330    -0.24200
H1191       H  0.81332352  0.32356520  0.23531498     0.05000
H1192       H  0.77287473  0.27950214  0.24177892     0.08200
H1193       H  0.81690465  0.28868235  0.26129792     0.08200
H1194       H  0.73309456  0.33952463  0.41182651     0.08200
H1195       H  0.77335107  0.38373127  0.40399850     0.08200
H1196       H  0.77628228  0.35006127  0.43413251     0.05000
C1197       C  0.72604044  0.07142419  0.31600039    -0.20800
C1198       C  0.74652312  0.08722847  0.35164247    -0.07400
C1199       C  0.74327865  0.06503955  0.38506037     0.13500
C1200       C  0.72176525  0.02710021  0.38083597    -0.20900
C1201       C  0.70331042  0.01073276  0.34386827    -0.07400
C1202       C  0.70420886  0.03351711  0.31165791     0.13500
C1203       C  0.68408119  0.01846617  0.27167949    -0.24200
H1204       H  0.72825740  0.08890134  0.29076307     0.14800
H1205       H  0.72101648  0.01005743  0.40581869     0.14800
C1206       C  0.76362901  0.08141961  0.42451149    -0.24200
H1207       H  0.68811806  0.04038030  0.25030663     0.05000
H1208       H  0.65410769  0.50160770  0.27784539     0.08200
H1209       H  0.69423899  0.00185246  0.25571168     0.08200
H1210       H  0.75483341  0.10015260  0.43781184     0.08200
H1211       H  0.79372417  0.09680847  0.41826511     0.08200
H1212       H  0.75815023  0.06030573  0.44772718     0.05000
C1213       C  0.83794858  0.17974262  0.19899068    -0.20800
C1214       C  0.81206384  0.18572097  0.22027068    -0.07400
C1215       C  0.78093596  0.18193814  0.19882298     0.13500
C1216       C  0.77502675  0.16887449  0.15824038    -0.20900
C1217       C  0.79939709  0.15997049  0.13848394    -0.07400
C1218       C  0.83189999  0.16668384  0.15856312     0.13500
C1219       C  0.85905773  0.15765641  0.13884766    -0.24200
H1220       H  0.86211508  0.18315278  0.21477965     0.14800
H1221       H  0.75053708  0.16439861  0.14222067     0.14800
C1222       C  0.75348018  0.19108499  0.21797273    -0.24200
H1223       H  0.88188603  0.16290614  0.15992325     0.05000
H1224       H  0.87148821  0.17464763  0.11114250     0.08200
H1225       H  0.84483440  0.12841534  0.13019535     0.08200
H1226       H  0.76811684  0.21897796  0.23109511     0.08200
H1227       H  0.73712123  0.17122657  0.24226439     0.08200
H1228       H  0.73361808  0.19013469  0.19498408     0.05000
C1229       C  0.74252772  0.24378649  0.46758458    -0.20800
C1230       C  0.76191443  0.22510641  0.47236792    -0.07400
C1231       C  0.76622098  0.21457579  0.51200526     0.13500
C1232       C  0.75442203  0.22651573  0.54635496    -0.20900
C1233       C  0.74010380  0.24994722  0.54171460    -0.07400
C1234       C  0.73192183  0.25680876  0.50184351     0.13500
C1235       C  0.71247920  0.27811114  0.49507208    -0.24200
H1236       H  0.73855833  0.25102173  0.43693747     0.14800
H1237       H  0.75980308  0.22049516  0.57697062     0.14800
C1238       C  0.78412826  0.19175980  0.51820271    -0.24200
H1239       H  0.70679597  0.27912454  0.46195973     0.05000
H1240       H  0.72935487  0.30655795  0.50593344     0.08200
H1241       H  0.68569371  0.26475240  0.51166208     0.08200
H1242       H  0.81334617  0.20667436  0.50804795     0.08200
H1243       H  0.76920867  0.16606697  0.50029195     0.08200
H1244       H  0.78364726  0.18470655  0.55109659     0.05000
C1245       C  0.84999768  0.16028589  0.48970890    -0.20800
C1246       C  0.88090005  0.18656377  0.46845084    -0.07400
C1247       C  0.91549113  0.20419216  0.48770131     0.13500
C1248       C  0.91786483  0.19687760  0.52903469    -0.20900
C1249       C  0.88638691  0.17273670  0.55166437    -0.07400
C1250       C  0.85203107  0.15328506  0.53127719     0.13500
C1251       C  0.81687603  0.12695932  0.55320003    -0.24200
H1252       H  0.82351892  0.14712636  0.47449773     0.14800
H1253       H  0.94437952  0.21103346  0.54412166     0.14800
C1254       C  0.94984385  0.23049273  0.46467777    -0.24200
H1255       H  0.79271475  0.11577757  0.53246479     0.05000
H1256       H  0.81136938  0.14089549  0.57918503     0.08200
H1257       H  0.81909030  0.10365793  0.56472606     0.08200
H1258       H  0.94760214  0.25400399  0.45398107     0.08200
H1259       H  0.95383221  0.21635664  0.43783180     0.08200
H1260       H  0.97470764  0.24115832  0.48423784     0.05000
Fe1261     Fe  0.85369133  0.68836318  0.34090050     1.65800
Fe1262     Fe  0.85800074  0.75726664  0.39655834     1.73200
Fe1263     Fe  0.78019063  0.69987398  0.34550650     1.54400
O1264       O  0.78877079  0.68641711  0.28671857    -0.82200
O1265       O  0.81684073  0.73609812  0.44012503    -0.80500
O1266       O  0.84734689  0.69993311  0.28142913    -0.84700
O1267       O  0.80451639  0.63864520  0.33699241    -0.79500
O1268       O  0.79432636  0.75042535  0.32431548    -0.81300
O1269       O  0.88245428  0.73208803  0.42721253    -0.84100
C1270       C  0.77236913  0.62674428  0.35203116     0.96700
C1271       C  0.81665765  0.69196771  0.26523851     1.04100
O1272       O  0.83061064  0.71550163  0.36085755    -1.13000
O1273       O  0.90238233  0.78184273  0.35643456    -0.75500
O1274       O  0.90710382  0.73314509  0.34245744    -0.79000
O1275       O  0.76130521  0.64774506  0.36552596    -0.79700
C1276       C  0.92163721  0.76745027  0.34644866     0.95600
O1277       O  0.85920598  0.67624479  0.40025858    -0.77600
O1278       O  0.83518965  0.78643664  0.37106186    -0.82800
C1279       C  0.78244603  0.72311028  0.43642534     0.98200
C1280       C  0.81203607  0.78070964  0.34277916     1.04100
O1281       O  0.76588218  0.71190249  0.40235136    -0.78500
C1282       C  0.87455311  0.69903671  0.42929389     1.02400
Fe1283     Fe  0.71236224  0.84745916  0.67253673     1.65800
Fe1284     Fe  0.77904437  0.84911327  0.61251469     1.73200
Fe1285     Fe  0.72425100  0.77490904  0.67029644     1.54400
O1286       O  0.71618561  0.78742030  0.73005271    -0.82200
O1287       O  0.75561733  0.80599631  0.57238379    -0.80500
O1288       O  0.72705783  0.84458269  0.73231921    -0.84700
O1289       O  0.66306521  0.79982940  0.68156805    -0.79500
O1290       O  0.77721731  0.78958086  0.68580903    -0.81300
O1291       O  0.75086519  0.87063362  0.58197354    -0.84100
C1292       C  0.64920582  0.76751772  0.66833841     0.96700
C1293       C  0.72162689  0.81565732  0.75005165     1.04100
O1294       O  0.73904034  0.82384289  0.65206078    -1.13000
O1295       O  0.80592622  0.89566720  0.64867584    -0.75500
O1296       O  0.75683233  0.89975655  0.66635779    -0.79000
O1297       O  0.66942121  0.75482524  0.65612458    -0.79700
C1298       C  0.79125784  0.91445622  0.65955010     0.95600
O1299       O  0.69619035  0.84952964  0.61323852    -0.77600
O1300       O  0.81107911  0.82859880  0.63664546    -0.82800
C1301       C  0.74123310  0.77207181  0.57757854     0.98200
C1302       C  0.80656190  0.80585436  0.66454887     1.04100
O1303       O  0.73114748  0.75723637  0.61267825    -0.78500
C1304       C  0.71724990  0.86280192  0.58203231     1.02400
Fe1305     Fe  0.85400076  0.63949130  0.67699962     1.65800
Fe1306     Fe  0.92049022  0.63398224  0.72658478     1.73200
Fe1307     Fe  0.94046310  0.70876133  0.67230702     1.54400
O1308       O  0.91563893  0.69888535  0.61486557    -0.82200
O1309       O  0.94008959  0.67531474  0.76923675    -0.80500
O1310       O  0.86731405  0.64279805  0.61594355    -0.84700
O1311       O  0.85487604  0.68925004  0.67415465    -0.79500
O1312       O  0.97227998  0.68865414  0.64897377    -0.81300
O1313       O  0.87073133  0.60930602  0.75872009    -0.84100
C1314       C  0.87756488  0.72197306  0.68433654     0.96700
C1315       C  0.89002993  0.67109559  0.59668244     1.04100
O1316       O  0.90511234  0.66100324  0.69198801    -1.13000
O1317       O  0.90016701  0.59045299  0.68575515    -0.75500
O1318       O  0.84589087  0.58670763  0.67718740    -0.79000
O1319       O  0.91060984  0.73227579  0.69360275    -0.79700
C1320       C  0.86618467  0.57216725  0.67640723     0.95600
O1321       O  0.83953245  0.63585527  0.73774052    -0.77600
O1322       O  0.97406958  0.65723707  0.70165002    -0.82800
C1323       C  0.96345430  0.70851702  0.76317674     0.98200
C1324       C  0.98981580  0.67874050  0.67173662     1.04100
O1325       O  0.96919971  0.72340667  0.72792993    -0.78500
C1326       C  0.84673107  0.61898811  0.76459707     1.02400
Fe1327     Fe  0.65498258  0.77905106  0.00497126     1.65800
Fe1328     Fe  0.59304400  0.71271414  0.94279815     1.73200
Fe1329     Fe  0.56992343  0.76797753  0.99705111     1.54400
O1330       O  0.58715353  0.77623030  0.05815596    -0.82200
O1331       O  0.57154060  0.73264857  0.90137317    -0.80500
O1332       O  0.63418264  0.76599356  0.06404224    -0.84700
O1333       O  0.65650181  0.82842601  0.01059379    -0.79500
O1334       O  0.53028351  0.71575120  0.01136197    -0.81300
O1335       O  0.64319543  0.74244252  0.91166364    -0.84100
C1336       C  0.63799268  0.84181622  0.99605720     0.96700
C1337       C  0.61011709  0.77256243  0.08007553     1.04100
O1338       O  0.60548805  0.75268450  0.98186788    -1.13000
O1339       O  0.61359872  0.68719668  0.97897581    -0.75500
O1340       O  0.66372612  0.73485498  0.00318918    -0.79000
O1341       O  0.60539115  0.82190825  0.98353118    -0.79700
C1342       C  0.64511418  0.70108666  0.99532686     0.95600
O1343       O  0.67655254  0.79432343  0.94676563    -0.77600
O1344       O  0.54040520  0.68015700  0.96795010    -0.82800
C1345       C  0.55360135  0.74930762  0.90393213     0.98200
C1346       C  0.52008117  0.68548303  0.99346815     1.04100
O1347       O  0.54899358  0.76199486  0.93779407    -0.78500
C1348       C  0.66891410  0.77551111  0.91393685     1.02400
Fe1349     Fe  0.80222805  0.63272194  0.01091362     1.65800
Fe1350     Fe  0.73097518  0.56633016  0.06180954     1.73200
Fe1351     Fe  0.79092827  0.54944165  0.00952395     1.54400
O1352       O  0.80682105  0.57378991  0.95231479    -0.82200
O1353       O  0.75236720  0.54712926  0.10455539    -0.80500
O1354       O  0.79149277  0.61697857  0.95068021    -0.84700
O1355       O  0.85262941  0.63328831  0.00630812    -0.79500
O1356       O  0.74041245  0.51595963  0.98490790    -0.81300
O1357       O  0.75493506  0.61533424  0.09476490    -0.84100
C1358       C  0.86469924  0.61297739  0.01922694     0.96700
C1359       C  0.80015458  0.59553781  0.93260658     1.04100
O1360       O  0.77461955  0.58263011  0.02765049    -1.13000
O1361       O  0.70707616  0.58598529  0.02147393    -0.75500
O1362       O  0.75662761  0.64035165  0.01314828    -0.79000
O1363       O  0.84319389  0.58136517  0.03249236    -0.79700
C1364       C  0.72181863  0.61972888  0.01397236     0.95600
O1365       O  0.81264094  0.64819967  0.07102287    -0.77600
O1366       O  0.70303121  0.51393284  0.03499514    -0.82800
C1367       C  0.76466530  0.52546639  0.09913748     0.98200
C1368       C  0.71082151  0.99878104  0.00538440     1.04100
O1369       O  0.77627048  0.52082797  0.06447600    -0.78500
C1370       C  0.78846443  0.64026546  0.09904636     1.02400
Fe1371     Fe  0.65134142  0.83714283  0.33623261     1.65800
Fe1372     Fe  0.64554754  0.90145474  0.28300104     1.73200
Fe1373     Fe  0.72387300  0.92200406  0.33448792     1.54400
O1374       O  0.71410466  0.90123217  0.39376366    -0.82200
O1375       O  0.68751519  0.92298792  0.24053778    -0.80500
O1376       O  0.65720570  0.85358393  0.39717371    -0.84700
O1377       O  0.70030565  0.83626400  0.33922336    -0.79500
O1378       O  0.70961143  0.95935649  0.35446767    -0.81300
O1379       O  0.62329073  0.85292586  0.24939970    -0.84100
C1380       C  0.73303178  0.85681994  0.32684738     0.96700
C1381       C  0.68663322  0.87769911  0.41442297     1.04100
O1382       O  0.67359856  0.88729770  0.31819545    -1.13000
O1383       O  0.59979431  0.88012980  0.32189310    -0.75500
O1384       O  0.59806226  0.82859594  0.33616234    -0.79000
O1385       O  0.74433241  0.88898830  0.31536470    -0.79700
C1386       C  0.58212289  0.84721830  0.33340336     0.95600
O1387       O  0.64593912  0.81989292  0.27585667    -0.77600
O1388       O  0.66651240  0.95289039  0.31031532    -0.82800
C1389       C  0.72213317  0.94278923  0.24401393     0.98200
C1390       C  0.69143513  0.97165055  0.33652482     1.04100
O1391       O  0.73896346  0.94676139  0.27755688    -0.78500
C1392       C  0.63121788  0.82759032  0.24659824     1.02400
C1393       C  0.77633118  0.52088098  0.17229515    -0.20800
C1394       C  0.76286954  0.50337577  0.13437429    -0.07400
C1395       C  0.74202264  0.96508943  0.13246918     0.13500
C1396       C  0.73224522  0.94545267  0.16914469    -0.20900
C1397       C  0.74268246  0.96320447  0.20740972    -0.07400
C1398       C  0.76676882  0.00120131  0.20901258     0.13500
C1399       C  0.78039069  0.52141089  0.24926748    -0.24200
H1400       H  0.79260233  0.55029264  0.17332714     0.14800
H1401       H  0.71408740  0.91625236  0.16816699     0.14800
C1402       C  0.72702372  0.94503732  0.09243092    -0.24200
H1403       H  0.79800093  0.55112554  0.24458739     0.05000
H1404       H  0.79706051  0.01172184  0.26530253     0.08200
H1405       H  0.75686042  0.51699476  0.26921843     0.08200
H1406       H  0.75000289  0.95059121  0.07087240     0.08200
H1407       H  0.70879088  0.95392112  0.07859536     0.08200
H1408       H  0.71058880  0.91518588  0.09684743     0.05000
C1409       C  0.59042742  0.79807121  0.18701499    -0.20800
C1410       C  0.62325175  0.80707971  0.20726445    -0.07400
C1411       C  0.64927105  0.79986021  0.18756613     0.13500
C1412       C  0.64272811  0.78595974  0.14716864    -0.20900
C1413       C  0.61112160  0.77954074  0.12542734    -0.07400
C1414       C  0.58376219  0.78419861  0.14662304     0.13500
C1415       C  0.54759153  0.77528307  0.12734041    -0.24200
H1416       H  0.57028181  0.80307744  0.20256022     0.14800
H1417       H  0.66364844  0.78209683  0.13176152     0.14800
C1418       C  0.68514610  0.80901596  0.20775124    -0.24200
H1419       H  0.52862939  0.77745845  0.14996232     0.05000
H1420       H  0.53360694  0.74697038  0.11531486     0.08200
H1421       H  0.55216198  0.79457408  0.10223026     0.08200
H1422       H  0.67969008  0.79269085  0.23605198     0.08200
H1423       H  0.70066320  0.83838498  0.21574914     0.08200
H1424       H  0.70291511  0.80304029  0.18719363     0.05000
C1425       C  0.70827792  0.94179745  0.98367980    -0.20800
C1426       C  0.68862016  0.95882883  0.99774132    -0.07400
C1427       C  0.65098639  0.93681698  0.00848129     0.13500
C1428       C  0.63456962  0.89863706  0.00574077    -0.20900
C1429       C  0.65525662  0.88196021  0.99438988    -0.07400
C1430       C  0.69263010  0.90405158  0.98295690     0.13500
C1431       C  0.71682108  0.88840790  0.97058883    -0.24200
H1432       H  0.73719494  0.95815234  0.97575034     0.14800
H1433       H  0.60588701  0.88170805  0.01435876     0.14800
C1434       C  0.62800923  0.95315335  0.02275566    -0.24200
H1435       H  0.74437913  0.90965965  0.95959157     0.05000
H1436       H  0.70394562  0.86838896  0.94536372     0.08200
H1437       H  0.72127547  0.87513549  0.99733917     0.08200
H1438       H  0.62914473  0.97255254  0.99940961     0.08200
H1439       H  0.63827732  0.96741878  0.05263419     0.08200
H1440       H  0.59871094  0.93204898  0.02732572     0.05000
C1441       C  0.65460380  0.64897768  0.97574151    -0.20800
C1442       C  0.66180527  0.67771904  0.00330470    -0.07400
C1443       C  0.68679932  0.68497433  0.03591267     0.13500
C1444       C  0.70489180  0.66471272  0.03882121    -0.20900
C1445       C  0.69877369  0.63713113  0.01038206    -0.07400
C1446       C  0.67288941  0.62873421  0.97883481     0.13500
C1447       C  0.66585740  0.59965134  0.94742220    -0.24200
H1448       H  0.63568032  0.64324637  0.95062118     0.14800
H1449       H  0.72447475  0.67076369  0.06334299     0.14800
C1450       C  0.69432443  0.71359683  0.06829816    -0.24200
H1451       H  0.64548792  0.59706889  0.92415543     0.05000
H1452       H  0.65494972  0.57306895  0.96293362     0.08200
H1453       H  0.69193330  0.60632210  0.93110076     0.08200
H1454       H  0.66799472  0.70876410  0.08248494     0.08200
H1455       H  0.70903079  0.74104675  0.05451744     0.08200
H1456       H  0.71195552  0.71317497  0.09327800     0.05000
C1457       C  0.91857397  0.63218929  0.97364126    -0.20800
C1458       C  0.90438509  0.62526406  0.01386527    -0.07400
C1459       C  0.92835295  0.63094446  0.04688904     0.13500
C1460       C  0.96657411  0.64795369  0.03934846    -0.20900
C1461       C  0.98099575  0.65732034  0.99924478    -0.07400
C1462       C  0.95640448  0.64731778  0.96583189     0.13500
C1463       C  0.97006359  0.65466064  0.92195331    -0.24200
H1464       H  0.89993178  0.62646035  0.94816782     0.14800
H1465       H  0.98538565  0.65555227  0.06496660     0.14800
C1466       C  0.91405626  0.62099548  0.09013546    -0.24200
H1467       H  0.94716121  0.64578453  0.89974268     0.05000
H1468       H  0.98502075  0.63983425  0.91451113     0.08200
H1469       H  0.98881851  0.68409698  0.91780121     0.08200
H1470       H  0.89383736  0.59151297  0.09185231     0.08200
H1471       H  0.90066963  0.63670588  0.09941973     0.08200
H1472       H  0.93650242  0.62724631  0.11222303     0.05000
C1473       C  0.52526778  0.74107090  0.79240295    -0.20800
C1474       C  0.98775541  0.72897190  0.79754407    -0.07400
C1475       C  0.97399895  0.73095398  0.83681846     0.13500
C1476       C  0.99786672  0.74271414  0.87062624    -0.20900
C1477       C  0.53445477  0.75035414  0.86637637    -0.07400
C1478       C  0.54877247  0.75117109  0.82623595     0.13500
C1479       C  0.58813148  0.76101379  0.81758244    -0.24200
H1480       H  0.53579395  0.73975274  0.76209018     0.14800
H1481       H  0.98681803  0.74235643  0.90110186     0.14800
C1482       C  0.93399163  0.71950146  0.84334221    -0.24200
H1483       H  0.60060267  0.78359937  0.79513618     0.05000
H1484       H  0.60553869  0.77006884  0.84524299     0.08200
H1485       H  0.58886604  0.73719095  0.80415135     0.08200
H1486       H  0.91642423  0.69018882  0.83609179     0.08200
H1487       H  0.92643272  0.73561921  0.82314783     0.08200
H1488       H  0.92813574  0.72384747  0.87572859     0.05000
C1489       C  0.81256612  0.63034916  0.86844844    -0.20800
C1490       C  0.80540405  0.59795301  0.88750344    -0.07400
C1491       C  0.80588745  0.57005251  0.86343984     0.13500
C1492       C  0.81733146  0.57701003  0.82229074    -0.20900
C1493       C  0.82749458  0.61058094  0.80447685    -0.07400
C1494       C  0.82353354  0.63699409  0.82720731     0.13500
C1495       C  0.83318293  0.67315947  0.80917014    -0.24200
H1496       H  0.81148305  0.65150696  0.88638351     0.14800
H1497       H  0.81961527  0.55655045  0.80420960     0.14800
C1498       C  0.79454984  0.53295894  0.88035494    -0.24200
H1499       H  0.83010165  0.69118330  0.83201999     0.05000
H1500       H  0.81475704  0.66913523  0.78297466     0.08200
H1501       H  0.86221677  0.68706616  0.79837920     0.08200
H1502       H  0.76676596  0.52114129  0.89474123     0.08200
H1503       H  0.81482256  0.53475116  0.90321876     0.08200
H1504       H  0.79321301  0.51390460  0.85577563     0.05000
C1505       C  0.69990069  0.82947382  0.81539789    -0.20800
C1506       C  0.71756595  0.81276735  0.79543792    -0.07400
C1507       C  0.72536833  0.78908441  0.81811341     0.13500
C1508       C  0.71095729  0.77910858  0.85807325    -0.20900
C1509       C  0.68978461  0.79275116  0.87616050    -0.07400
C1510       C  0.68563824  0.81964476  0.85539875     0.13500
C1511       C  0.66439386  0.83690341  0.87301631    -0.24200
H1512       H  0.69441922  0.84814564  0.79854561     0.14800
H1513       H  0.71492584  0.75934950  0.87470200     0.14800
C1514       C  0.74867064  0.77406973  0.80057317    -0.24200
H1515       H  0.64217960  0.83280400  0.85165388     0.05000
H1516       H  0.68317711  0.86659976  0.87645997     0.08200
H1517       H  0.65146138  0.82576950  0.90326525     0.08200
H1518       H  0.77514006  0.79660880  0.78875743     0.08200
H1519       H  0.73403654  0.75429285  0.77548661     0.08200
H1520       H  0.75518366  0.75956712  0.82431034     0.05000
C1521       C  0.54687690  0.73670759  0.66433302    -0.20800
C1522       C  0.53053990  0.69894840  0.66806750    -0.07400
C1523       C  0.55330007  0.68338530  0.67166663     0.13500
C1524       C  0.59195200  0.70617520  0.67053513    -0.20900
C1525       C  0.60828780  0.74428302  0.66781714    -0.07400
C1526       C  0.58500555  0.75959701  0.66515122     0.13500
C1527       C  0.59946284  0.80003315  0.66360495    -0.24200
H1528       H  0.52937100  0.74875652  0.66269815     0.14800
H1529       H  0.60946089  0.69421811  0.67293816     0.14800
C1530       C  0.53699351  0.64300918  0.67605508    -0.24200
H1531       H  0.57715225  0.80650643  0.65881971     0.05000
H1532       H  0.61941860  0.81228814  0.63789998     0.08200
H1533       H  0.61279119  0.81291458  0.69320242     0.08200
H1534       H  0.51881821  0.62880554  0.64952623     0.08200
H1535       H  0.52073150  0.63375503  0.70505613     0.08200
H1536       H  0.55867733  0.63524351  0.67699915     0.05000
C1537       C  0.79650018  0.97403900  0.64629906    -0.20800
C1538       C  0.81322431  0.95494137  0.66129280    -0.07400
C1539       C  0.84919121  0.97488870  0.67735339     0.13500
C1540       C  0.86638185  0.51313168  0.68035711    -0.20900
C1541       C  0.84873385  0.53219941  0.66737542    -0.07400
C1542       C  0.81353119  0.51201944  0.64879101     0.13500
C1543       C  0.79339925  0.52980989  0.63085216    -0.24200
H1544       H  0.76940980  0.95889341  0.63262166     0.14800
H1545       H  0.89337140  0.52807654  0.69420833     0.14800
C1546       C  0.86895128  0.95599888  0.69283729    -0.24200
H1547       H  0.76818384  0.50999187  0.61419632     0.05000
H1548       H  0.81151887  0.55091966  0.60847878     0.08200
H1549       H  0.78444057  0.54196502  0.65567046     0.08200
H1550       H  0.87359802  0.94123772  0.66712038     0.08200
H1551       H  0.85226545  0.93650107  0.71733171     0.08200
H1552       H  0.89623017  0.97555218  0.70590116     0.05000
C1553       C  0.83941433  0.78476898  0.70986760    -0.20800
C1554       C  0.83413686  0.79400711  0.67010485    -0.07400
C1555       C  0.84798765  0.78333998  0.63583683     0.15900
C1556       C  0.86306851  0.76073982  0.64199423    -0.20900
C1557       C  0.86580681  0.74941903  0.68145451    -0.07400
C1558       C  0.85575399  0.76323000  0.71600229     0.13500
C1559       C  0.86063548  0.75479602  0.75947740    -0.24200
H1560       H  0.82917360  0.79304383  0.73630829     0.14800
H1561       H  0.87178681  0.75085084  0.61563785     0.14800
C1562       C  0.84503038  0.79371237  0.59244256    -0.24200
H1563       H  0.87765734  0.78053416  0.77666377     0.05000
H1564       H  0.87474099  0.73868623  0.76088562     0.08200
H1565       H  0.83332196  0.73951145  0.77486738     0.08200
H1566       H  0.86062736  0.82371892  0.58949226     0.08200
H1567       H  0.81582065  0.78345840  0.58468588     0.08200
H1568       H  0.85644362  0.78220633  0.56952509     0.05000
C1569       C  0.66694828  0.84479131  0.48119561    -0.20800
C1570       C  0.69020402  0.87711363  0.45998618    -0.07400
C1571       C  0.71787244  0.90705731  0.48249495     0.13500
C1572       C  0.72417007  0.90225548  0.52362512    -0.20900
C1573       C  0.70299443  0.86897844  0.54345322    -0.07400
C1574       C  0.67273958  0.84052188  0.52275923     0.13500
C1575       C  0.64748348  0.80511580  0.54376800    -0.24200
H1576       H  0.64501071  0.82207834  0.46480322     0.14800
H1577       H  0.74685337  0.92426484  0.54006280     0.14800
C1578       C  0.74121550  0.94418592  0.46391238    -0.24200
H1579       H  0.62663101  0.78501617  0.52234409     0.05000
H1580       H  0.63260508  0.81004533  0.56919169     0.08200
H1581       H  0.66347002  0.79314297  0.55647192     0.08200
H1582       H  0.72326720  0.95337023  0.44980787     0.08200
H1583       H  0.76047417  0.94362006  0.44052664     0.08200
H1584       H  0.75827419  0.96473646  0.48748454     0.05000
C1585       C  0.98302370  0.77559810  0.36107083    -0.20800
C1586       C  0.96263274  0.79004970  0.34378843    -0.07400
C1587       C  0.98185601  0.82517522  0.32650861     0.13500
C1588       C  0.52080185  0.84383819  0.32484854    -0.20900
C1589       C  0.54127512  0.82871681  0.34102305    -0.07400
C1590       C  0.52167230  0.79446237  0.36084442     0.13500
C1591       C  0.54068670  0.77716888  0.38255762    -0.24200
H1592       H  0.96842925  0.74910397  0.37516956     0.14800
H1593       H  0.53523590  0.86999408  0.30987300     0.14800
C1594       C  0.96156016  0.84249594  0.30819275    -0.24200
H1595       H  0.52089655  0.75262505  0.39993045     0.05000
H1596       H  0.56077781  0.79667583  0.40503236     0.08200
H1597       H  0.55475544  0.76831867  0.35991965     0.08200
H1598       H  0.94538597  0.84706822  0.33248469     0.08200
H1599       H  0.94275902  0.82458426  0.28376149     0.08200
H1600       H  0.98075578  0.86921416  0.29425268     0.05000
C1601       C  0.76889558  0.83096323  0.29361118    -0.20800
C1602       C  0.75920424  0.84336375  0.32922284    -0.07400
C1603       C  0.77257779  0.84049297  0.36777944     0.13500
C1604       C  0.79377955  0.82349007  0.37022682    -0.20900
C1605       C  0.80100978  0.80822401  0.33523084    -0.07400
C1606       C  0.78971694  0.81335474  0.29610185     0.13500
C1607       C  0.79889264  0.80046462  0.25660859    -0.24200
H1608       H  0.75903663  0.83379309  0.26395385     0.14800
H1609       H  0.80207058  0.81941916  0.40026858     0.14800
C1610       C  0.76327578  0.85415114  0.40667530    -0.24200
H1611       H  0.81356823  0.82376717  0.23538047     0.05000
H1612       H  0.77310401  0.77969529  0.24171648     0.08200
H1613       H  0.81709102  0.78883639  0.26133153     0.08200
H1614       H  0.73301628  0.83944468  0.41178281     0.08200
H1615       H  0.77327706  0.88366674  0.40405348     0.08200
H1616       H  0.77617282  0.84996270  0.43415849     0.05000
C1617       C  0.72605990  0.57143970  0.31595506    -0.20800
C1618       C  0.74653710  0.58725098  0.35159917    -0.07400
C1619       C  0.74329161  0.56506604  0.38502206     0.13500
C1620       C  0.72177875  0.52712571  0.38080495    -0.20900
C1621       C  0.70332428  0.51075132  0.34383944    -0.07400
C1622       C  0.70422825  0.53353099  0.31162004     0.13500
C1623       C  0.68410443  0.51847249  0.27164111    -0.24200
H1624       H  0.72827965  0.58891238  0.29071159     0.14800
H1625       H  0.72102863  0.51008720  0.40579330     0.14800
C1626       C  0.76364180  0.58145158  0.42447150    -0.24200
H1627       H  0.68814812  0.54038263  0.25025814     0.05000
H1628       H  0.65408552  0.00159569  0.27788686     0.08200
H1629       H  0.69425877  0.50185052  0.25568616     0.08200
H1630       H  0.75484872  0.60018884  0.43776483     0.08200
H1631       H  0.79373677  0.59683634  0.41822390     0.08200
H1632       H  0.75816133  0.56034152  0.44769298     0.05000
C1633       C  0.83797472  0.67971799  0.19899571    -0.20800
C1634       C  0.81212644  0.68576639  0.22025306    -0.07400
C1635       C  0.78102801  0.68203691  0.19878999     0.13500
C1636       C  0.77509937  0.66894812  0.15821797    -0.20900
C1637       C  0.79942876  0.65997674  0.13848584    -0.07400
C1638       C  0.83191067  0.66664043  0.15857572     0.13500
C1639       C  0.85902729  0.65754527  0.13887752    -0.24200
H1640       H  0.86211927  0.68308678  0.21479818     0.14800
H1641       H  0.75062841  0.66451064  0.14218661     0.14800
C1642       C  0.75362763  0.69127292  0.21791281    -0.24200
H1643       H  0.88184035  0.66276285  0.15996135     0.05000
H1644       H  0.87148346  0.67452176  0.11116786     0.08200
H1645       H  0.84476477  0.62830167  0.13023302     0.08200
H1646       H  0.76831655  0.71916858  0.23102297     0.08200
H1647       H  0.73723002  0.67143990  0.24220958     0.08200
H1648       H  0.73379612  0.69036515  0.19490959     0.05000
C1649       C  0.74255187  0.74383036  0.46754342    -0.20800
C1650       C  0.76190717  0.72512057  0.47233570    -0.07400
C1651       C  0.76617602  0.71456391  0.51197424     0.13500
C1652       C  0.75437863  0.72651217  0.54631986    -0.20900
C1653       C  0.74008860  0.74996756  0.54167478    -0.07400
C1654       C  0.73193937  0.75685235  0.50179713     0.13500
C1655       C  0.71252031  0.77817505  0.49501104    -0.24200
H1656       H  0.73860983  0.75108468  0.43689450     0.14800
H1657       H  0.75973577  0.72047373  0.57693787     0.14800
C1658       C  0.78403669  0.69170577  0.51817582    -0.24200
H1659       H  0.70685900  0.77920158  0.46189440     0.05000
H1660       H  0.72940023  0.80661760  0.50588382     0.08200
H1661       H  0.68572419  0.76482086  0.51157841     0.08200
H1662       H  0.81325881  0.70659199  0.50803277     0.08200
H1663       H  0.76909785  0.66602034  0.50025567     0.08200
H1664       H  0.78353329  0.68463892  0.55106863     0.05000
C1665       C  0.85002846  0.66022476  0.48966772    -0.20800
C1666       C  0.88091929  0.68654853  0.46843548    -0.07400
C1667       C  0.91549997  0.70421384  0.48770771     0.13500
C1668       C  0.91786772  0.69689321  0.52904008    -0.20900
C1669       C  0.88639370  0.67271079  0.55164875    -0.07400
C1670       C  0.85205589  0.65321448  0.53123439     0.13500
C1671       C  0.81690895  0.62682640  0.55312433    -0.24200
H1672       H  0.82355786  0.64703690  0.47444059     0.14800
H1673       H  0.94437244  0.71108072  0.54414419     0.14800
C1674       C  0.94984841  0.73056396  0.46471064    -0.24200
H1675       H  0.79276132  0.61560325  0.53236590     0.05000
H1676       H  0.81133865  0.64072230  0.57910245     0.08200
H1677       H  0.81918011  0.60355779  0.56465380     0.08200
H1678       H  0.94757232  0.75405916  0.45402653     0.08200
H1679       H  0.95387877  0.71646343  0.43785727     0.08200
H1680       H  0.97470492  0.74125059  0.48428583     0.05000
loop_ 
_geom_bond_atom_site_label_1 
_geom_bond_atom_site_label_2 
_geom_bond_distance 
_geom_bond_site_symmetry_2 
_ccdc_geom_bond_type 
Fe1          O17   2.048       .  S
Fe1           O7   2.094       .  S
Fe1          O14   2.094       .  S
Fe1           O6   2.053       .  S
Fe1          O12   1.938       .  S
Fe2           O5   2.051       .  S
Fe2           O9   2.081       .  S
Fe2          O13   2.069       .  S
Fe2          O18   2.088       .  S
Fe2          O12   1.940       .  S
Fe3          O21   2.068       .  S
Fe3           O8   2.048       .  S
Fe3          O15   2.057       .  S
Fe3           O4   2.064       .  S
Fe3          O12   1.942       .  S
O4           C11   1.270       .  A
O5           C19   1.267       .  A
O6           C11   1.274       .  A
O7           C10   1.272       .  A
O8           C20   1.267       .  A
O9           C22   1.274       .  A
C10          O15   1.264       .  A
C10         C358   1.475       .  S
C11         C374   1.479       .  S
O13          C16   1.268       .  A
O14          C16   1.274       .  A
C16         C326   1.494       .  S
O17          C22   1.270       .  A
O18          C20   1.276       .  A
C19          O21   1.269       .  A
C19         C390   1.466       .  S
C20         C345   1.479       .  S
C22         C406   1.462       .  S
Fe23         O39   2.068       .  S
Fe23         O29   2.068       .  S
Fe23         O36   2.079       .  S
Fe23         O28   2.069       .  S
Fe23         O34   1.943       .  S
Fe24         O27   2.049       .  S
Fe24         O31   2.084       .  S
Fe24         O35   2.077       .  S
Fe24         O40   2.094       .  S
Fe24         O34   1.948       .  S
Fe25         O43   2.077       .  S
Fe25         O30   2.051       .  S
Fe25         O37   2.069       .  S
Fe25         O26   2.073       .  S
Fe25         O34   1.948       .  S
O26          C33   1.274       .  A
O27          C41   1.267       .  A
O28          C33   1.277       .  A
O29          C32   1.266       .  A
O30          C42   1.268       .  A
O31          C44   1.275       .  A
C32          O37   1.267       .  A
C32         C265   1.492       .  S
C33         C246   1.482       .  S
O35          C38   1.270       .  A
O36          C38   1.271       .  A
C38         C278   1.493       .  S
O39          C44   1.272       .  A
O40          C42   1.276       .  A
C41          O43   1.271       .  A
C41         C393   1.473       .  S
C42         C294   1.485       .  S
C44         C313   1.477       .  S
Fe45         O61   2.041       .  S
Fe45         O51   2.098       .  S
Fe45         O58   2.093       .  S
Fe45         O50   2.040       .  S
Fe45         O56   1.929       .  S
Fe46         O49   2.051       .  S
Fe46         O53   2.079       .  S
Fe46         O57   2.073       .  S
Fe46         O62   2.105       .  S
Fe46         O56   1.946       .  S
Fe47         O65   2.094       .  S
Fe47         O52   2.041       .  S
Fe47         O59   2.059       .  S
Fe47         O48   2.082       .  S
Fe47         O56   1.932       .  S
O48          C55   1.277       .  A
O49          C63   1.270       .  A
O50          C55   1.267       .  A
O51          C54   1.274       .  A
O52          C64   1.263       .  A
O53          C66   1.273       .  A
C54          O59   1.266       .  A
C54         C297   1.478       .  S
C55         C409   1.479       .  S
O57          C60   1.275       .  A
O58          C60   1.275       .  A
C60         C281   1.503       .  S
O61          C66   1.267       .  A
O62          C64   1.272       .  A
C63          O65   1.276       .  A
C63         C214   1.470       .  S
C64        C1102   1.482       .  S
C66         C233   1.467       .  S
Fe67         O83   2.053   1_554  S
Fe67         O73   2.072       .  S
Fe67         O80   2.084       .  S
Fe67         O72   2.061       .  S
Fe67         O78   1.955   1_554  S
Fe68         O71   2.040       .  S
Fe68         O75   2.088       .  S
Fe68         O79   2.071       .  S
Fe68         O84   2.093       .  S
Fe68         O78   1.960       .  S
Fe69         O87   2.086       .  S
Fe69         O74   2.056   1_556  S
Fe69         O81   2.065       .  S
Fe69         O70   2.087   1_556  S
Fe69         O78   1.954       .  S
O70          C77   1.276       .  A
O71          C85   1.264       .  A
O72          C77   1.275       .  A
O73          C76   1.266   1_554  A
O74          C86   1.270   1_554  A
O75          C88   1.277       .  A
C76          O81   1.265       .  A
C76         C169   1.485       .  S
C77         C153   1.496       .  S
O79          C82   1.268       .  A
O80          C82   1.269   1_554  A
C82         C182   1.498   1_556  S
O83          C88   1.269       .  A
O84          C86   1.277       .  A
C85          O87   1.273       .  A
C85         C217   1.483       .  S
C86        C1041   1.480   1_455  S
C88         C249   1.471       .  S
Fe89        O105   2.034       .  S
Fe89         O95   2.102       .  S
Fe89        O102   2.090       .  S
Fe89         O94   2.041   1_554  S
Fe89        O100   1.929       .  S
Fe90         O93   2.046       .  S
Fe90         O97   2.091       .  S
Fe90        O101   2.077       .  S
Fe90        O106   2.112       .  S
Fe90        O100   1.938       .  S
Fe91        O109   2.080       .  S
Fe91         O96   2.039   1_554  S
Fe91        O103   2.061       .  S
Fe91         O92   2.073   1_554  S
Fe91        O100   1.930       .  S
O92          C99   1.272       .  A
O93         C107   1.268       .  A
O94          C99   1.270       .  A
O95          C98   1.275       .  A
O96         C528   1.264   1_546  A
O97         C110   1.278       .  A
C98         O103   1.265       .  A
C98         C198   1.482       .  S
C99         C230   1.476       .  S
O101        C104   1.272       .  A
O102        C104   1.273       .  A
C104        C185   1.486       .  S
O105        C110   1.269       .  A
O106        C528   1.277   1_545  A
C107        O109   1.272       .  A
C107        C134   1.467       .  S
C108        O516   1.264   1_554  A
C108        O526   1.277       .  A
C108        C166   1.493   1_554  S
C110        C377   1.469       .  S
Fe111       O127   2.060       .  S
Fe111       O117   2.073       .  S
Fe111       O124   2.075       .  S
Fe111       O116   2.067       .  S
Fe111       O122   1.947       .  S
Fe112       O115   2.048       .  S
Fe112       O119   2.089       .  S
Fe112       O123   2.079       .  S
Fe112       O128   2.095       .  S
Fe112       O122   1.952       .  S
Fe113       O131   2.069       .  S
Fe113       O118   2.049       .  S
Fe113       O125   2.060       .  S
Fe113       O114   2.078       .  S
Fe113       O122   1.950       .  S
O114        C121   1.274       .  A
O115        C129   1.269       .  A
O116        C121   1.276       .  A
O117        C120   1.267       .  A
O118        C130   1.268       .  A
O119        C132   1.276       .  A
C120        O125   1.262       .  A
C120        C342   1.470       .  S
C121        C310   1.492       .  S
O123        C126   1.272       .  A
O124        C126   1.268       .  A
C126        C329   1.503       .  S
O127        C132   1.271       .  A
O128        C130   1.276       .  A
C129        O131   1.269       .  A
C129        C137   1.470       .  S
C130        C781   1.493       .  S
C132        C150   1.482       .  S
C133        C134   1.402       .  A
C133        C558   1.401       .  A
C133        H140   1.085       .  S
C134        C555   1.412   1_545  A
C135        C136   1.398       .  A
C135        C554   1.412       .  A
C135        C142   1.507       .  S
C136        C137   1.402       .  A
C136        H141   1.085       .  S
C137        C138   1.415       .  A
C138        C553   1.401       .  A
C138        C559   1.508       .  S
C139        C558   1.508       .  S
C139        H143   1.111       .  S
C139        H145   1.108       .  S
C139        H564   1.110       .  S
C142        H146   1.110       .  S
C142        H147   1.108       .  S
C142        H148   1.111       .  S
H144        C559   1.110       .  S
C149        C150   1.401       .  A
C149        C154   1.404       .  A
C149        H156   1.084       .  S
C150        C151   1.414       .  A
C151        C152   1.405       .  A
C151        C158   1.509       .  S
C152        C153   1.409       .  A
C152        H157   1.083       .  S
C153        C154   1.423       .  A
C154        C155   1.510       .  S
C155        H159   1.111       .  S
C155        H160   1.111       .  S
C155        H161   1.109       .  S
C158        H162   1.110       .  S
C158        H163   1.111       .  S
C158        H164   1.111       .  S
C165        C166   1.408       .  A
C165        C170   1.397       .  A
C165        H172   1.083       .  S
C166        C167   1.416   1_556  A
C167        C168   1.413       .  A
C167        C174   1.505       .  S
C168        C169   1.408   1_554  A
C168        H173   1.083       .  S
C169        C170   1.414       .  A
C170        C171   1.510       .  S
C171        H175   1.111       .  S
C171        H176   1.105       .  S
C171        H177   1.109       .  S
C174        H178   1.110   1_554  S
C174        H179   1.109       .  S
C174        H180   1.111       .  S
C181        C182   1.412   1_556  A
C181        C186   1.413       .  A
C181        H188   1.083       .  S
C182        C183   1.419       .  A
C183        C184   1.406       .  A
C183        C190   1.509       .  S
C184        C185   1.403       .  A
C184        H189   1.084       .  S
C185        C186   1.410   1_554  A
C186        C187   1.505       .  S
C187        H191   1.111       .  S
C187        H192   1.110       .  S
C187        H193   1.111       .  S
C190        H194   1.111       .  S
C190        H195   1.109       .  S
C190        H196   1.111       .  S
C197        C198   1.401   1_556  A
C197        C202   1.402       .  A
C197        H204   1.085       .  S
C198        C199   1.414       .  A
C199        C200   1.409       .  A
C199        C206   1.500       .  S
C200        C201   1.405   1_554  A
C200        H205   1.084       .  S
C201        C926   1.480       .  S
C201        C202   1.415       .  A
C202        C203   1.506       .  S
C203        H207   1.111       .  S
C203        H208   1.110       .  S
C203        H209   1.105       .  S
C206        H210   1.110       .  S
C206        H211   1.101       .  S
C206        H212   1.111       .  S
C213        C218   1.399       .  A
C213       C1054   1.398   1_455  A
C213        H220   1.085       .  S
C214        C215   1.411       .  A
C214       C1053   1.398       .  A
C215        C216   1.405       .  A
C215        C222   1.507       .  S
C216       C1057   1.406       .  A
C216        H221   1.084       .  S
C217        C218   1.421       .  A
C217       C1056   1.406   1_455  A
C218        C219   1.508       .  S
C219        H223   1.111       .  S
C219        H224   1.103       .  S
C219        H225   1.111       .  S
C222        H226   1.109       .  S
C222        H227   1.110       .  S
C222        H228   1.111       .  S
C229        C230   1.404       .  A
C229        C234   1.396       .  A
C229        H236   1.084       .  S
C230        C231   1.419       .  A
C231        C232   1.398       .  A
C231        C238   1.510       .  S
C232        C233   1.400       .  A
C232        H237   1.085       .  S
C233        C234   1.411       .  A
C234        C235   1.505       .  S
C235        H239   1.111       .  S
C235        H240   1.110       .  S
C235        H241   1.108       .  S
C238        H242   1.111       .  S
C238        H243   1.109       .  S
C238        H244   1.111       .  S
C245        C246   1.403       .  A
C245        C250   1.401       .  A
C245        H252   1.085       .  S
C246        C247   1.420       .  A
C247        C248   1.402       .  A
C247        C254   1.509       .  S
C248        C249   1.398       .  A
C248        H253   1.085       .  S
C249        C250   1.418       .  A
C250        C251   1.510       .  S
C251        H255   1.109       .  S
C251        H256   1.110       .  S
C251        H257   1.107       .  S
C254        H258   1.110       .  S
C254        H259   1.108       .  S
C254        H260   1.111       .  S
C261        C262   1.401       .  A
C261        C266   1.396       .  A
C261        H268   1.085       .  S
C262        C904   1.482   1_455  S
C262        C263   1.411       .  A
C263        C264   1.413       .  A
C263        C270   1.505       .  S
C264        C265   1.412       .  A
C264        H269   1.084       .  S
C265        C266   1.420       .  A
C266        C267   1.511       .  S
C267        H271   1.111       .  S
C267        H272   1.107       .  S
C267        H273   1.110       .  S
C270        H274   1.110       .  S
C270        H275   1.110       .  S
C270        H276   1.111       .  S
C277        C278   1.404       .  A
C277        C702   1.404       .  A
C277        H284   1.085       .  S
C278        C279   1.413       .  A
C279        C700   1.414       .  A
C279        C286   1.505       .  S
C280        C281   1.412       .  A
C280        C699   1.414   1_545  A
C280        H285   1.084       .  S
C281        C282   1.423       .  A
C282        C697   1.404   1_545  A
C282        C283   1.510       .  S
C283        H287   1.111       .  S
C283        H288   1.110       .  S
C283        H289   1.109       .  S
C286        H290   1.110       .  S
C286        H291   1.110       .  S
C286        H292   1.111       .  S
C293        C294   1.407       .  A
C293        C298   1.406       .  A
C293        H300   1.085       .  S
C294        C295   1.418       .  A
C295        C296   1.405       .  A
C295        C302   1.507       .  S
C296        C297   1.401       .  A
C296        H301   1.085       .  S
C297        C298   1.413       .  A
C298        C299   1.503       .  S
C299        H303   1.110       .  S
C299        H304   1.106       .  S
C299        H305   1.110       .  S
C302        H306   1.110       .  S
C302        H307   1.107       .  S
C302        H308   1.111       .  S
C309        C310   1.408       .  A
C309        C314   1.405       .  A
C309        H316   1.084       .  S
C310        C311   1.423       .  A
C311        C312   1.403       .  A
C311        C318   1.510       .  S
C312        C313   1.399       .  A
C312        H317   1.085       .  S
C313        C314   1.412       .  A
C314        C315   1.506       .  S
C315        H319   1.111       .  S
C315        H320   1.107       .  S
C315        H321   1.109       .  S
C318        H322   1.111       .  S
C318        H323   1.109       .  S
C318        H324   1.111       .  S
C325        C326   1.402       .  A
C325       C1170   1.403       .  A
C325        H332   1.082       .  S
C326        C327   1.415       .  A
C327       C1168   1.415       .  A
C327        C334   1.505       .  S
C328        C329   1.412       .  A
C328       C1167   1.415   1_455  A
C328        H333   1.083       .  S
C329        C330   1.423       .  A
C330       C1165   1.403   1_455  A
C330        C331   1.511       .  S
C331        H335   1.111       .  S
C331        H336   1.111       .  S
C331        H337   1.109       .  S
C334        H338   1.110       .  S
C334        H339   1.110       .  S
C334        H340   1.111       .  S
C341        C342   1.401       .  A
C341        C346   1.407       .  A
C341        H348   1.085       .  S
C342        C343   1.410       .  A
C343        C344   1.399       .  A
C343        C350   1.509       .  S
C344        C345   1.404       .  A
C344        H349   1.085       .  S
C345        C346   1.419       .  A
C346        C347   1.507       .  S
C347        H351   1.110       .  S
C347        H352   1.110       .  S
C347        H353   1.108       .  S
C350        H354   1.110       .  S
C350        H355   1.110       .  S
C350        H356   1.111       .  S
C357        C358   1.400       .  A
C357        C362   1.407       .  A
C357        H364   1.085       .  S
C358        C359   1.407       .  A
C359        C360   1.406       .  A
C359        C366   1.506       .  S
C360        C361   1.411       .  A
C360        H365   1.084       .  S
C361        C550   1.493   1_545  S
C361        C362   1.422       .  A
C362        C363   1.509       .  S
C363        H367   1.111       .  S
C363        H369   1.109       .  S
C363        H788   1.110       .  S
C366        H370   1.111       .  S
C366        H371   1.110       .  S
C366        H372   1.111       .  S
H368        C783   1.110       .  S
C373        C374   1.402       .  A
C373        C378   1.395       .  A
C373        H380   1.084       .  S
C374        C375   1.423       .  A
C375        C376   1.400       .  A
C375        C382   1.509       .  S
C376        C377   1.399       .  A
C376        H381   1.085       .  S
C377        C378   1.412       .  A
C378        C379   1.503       .  S
C379        H383   1.111       .  S
C379        H384   1.110       .  S
C379        H385   1.111       .  S
C382        H386   1.109       .  S
C382        H387   1.109       .  S
C382        H388   1.111       .  S
C389        C390   1.400       .  A
C389        C394   1.399       .  A
C389        H396   1.085       .  S
C390        C391   1.412       .  A
C391        C392   1.402       .  A
C391        C398   1.508       .  S
C392        C393   1.405       .  A
C392        H397   1.084       .  S
C393        C394   1.415       .  A
C394        C395   1.508       .  S
C395        H399   1.111       .  S
C395        H400   1.108       .  S
C395        H401   1.108       .  S
C398        H402   1.109       .  S
C398        H403   1.111       .  S
C398        H404   1.111       .  S
C405        C406   1.398       .  A
C405        C410   1.399       .  A
C405        H412   1.085       .  S
C406        C407   1.408       .  A
C407        C408   1.398       .  A
C407        C414   1.506       .  S
C408        C409   1.406       .  A
C408        H413   1.085       .  S
C409        C410   1.421       .  A
C410        C411   1.509       .  S
C411        H415   1.111       .  S
C411        H416   1.110       .  S
C411        H417   1.109       .  S
C414        H418   1.109       .  S
C414        H419   1.109       .  S
C414        H420   1.111       .  S
Fe421       O437   2.048       .  S
Fe421       O427   2.094       .  S
Fe421       O434   2.094       .  S
Fe421       O426   2.053       .  S
Fe421       O432   1.938       .  S
Fe422       O425   2.051       .  S
Fe422       O429   2.081       .  S
Fe422       O433   2.069       .  S
Fe422       O438   2.088       .  S
Fe422       O432   1.940       .  S
Fe423       O441   2.068       .  S
Fe423       O428   2.048       .  S
Fe423       O435   2.057       .  S
Fe423       O424   2.064       .  S
Fe423       O432   1.942       .  S
O424        C431   1.270       .  A
O425        C439   1.267       .  A
O426        C431   1.274       .  A
O427        C430   1.272       .  A
O428        C440   1.267       .  A
O429        C442   1.274       .  A
C430        O435   1.264       .  A
C430        C778   1.475       .  S
C431        C794   1.479       .  S
O433        C436   1.268       .  A
O434        C436   1.274       .  A
C436        C746   1.494       .  S
O437        C442   1.270       .  A
O438        C440   1.276       .  A
C439        O441   1.269       .  A
C439        C810   1.466       .  S
C440        C765   1.479       .  S
C442        C826   1.462       .  S
Fe443       O459   2.068       .  S
Fe443       O449   2.068       .  S
Fe443       O456   2.079       .  S
Fe443       O448   2.069       .  S
Fe443       O454   1.943       .  S
Fe444       O447   2.049       .  S
Fe444       O451   2.084       .  S
Fe444       O455   2.077       .  S
Fe444       O460   2.094       .  S
Fe444       O454   1.948       .  S
Fe445       O463   2.077       .  S
Fe445       O450   2.051       .  S
Fe445       O457   2.069       .  S
Fe445       O446   2.073       .  S
Fe445       O454   1.948       .  S
O446        C453   1.274       .  A
O447        C461   1.267       .  A
O448        C453   1.277       .  A
O449        C452   1.266       .  A
O450        C462   1.268       .  A
O451        C464   1.275       .  A
C452        O457   1.267       .  A
C452        C685   1.492       .  S
C453        C666   1.482       .  S
O455        C458   1.270       .  A
O456        C458   1.271       .  A
C458        C698   1.493       .  S
O459        C464   1.272       .  A
O460        C462   1.276       .  A
C461        O463   1.271       .  A
C461        C813   1.473       .  S
C462        C714   1.485       .  S
C464        C733   1.477       .  S
Fe465       O481   2.041       .  S
Fe465       O471   2.098       .  S
Fe465       O478   2.093       .  S
Fe465       O470   2.041       .  S
Fe465       O476   1.929       .  S
Fe466       O469   2.051       .  S
Fe466       O473   2.079       .  S
Fe466       O477   2.073       .  S
Fe466       O482   2.105       .  S
Fe466       O476   1.946       .  S
Fe467       O485   2.094       .  S
Fe467       O472   2.041       .  S
Fe467       O479   2.059       .  S
Fe467       O468   2.082       .  S
Fe467       O476   1.932       .  S
O468        C475   1.277       .  A
O469        C483   1.270       .  A
O470        C475   1.267       .  A
O471        C474   1.274       .  A
O472        C484   1.263       .  A
O473        C486   1.273       .  A
C474        O479   1.266       .  A
C474        C717   1.478       .  S
C475        C829   1.479       .  S
O477        C480   1.275       .  A
O478        C480   1.275       .  A
C480        C701   1.503       .  S
O481        C486   1.267       .  A
O482        C484   1.272       .  A
C483        O485   1.276       .  A
C483        C634   1.470       .  S
C484       C1522   1.482       .  S
C486        C653   1.467       .  S
Fe487       O503   2.053   1_554  S
Fe487       O493   2.072       .  S
Fe487       O500   2.084       .  S
Fe487       O492   2.061       .  S
Fe487       O498   1.955   1_554  S
Fe488       O491   2.040       .  S
Fe488       O495   2.088       .  S
Fe488       O499   2.071       .  S
Fe488       O504   2.094       .  S
Fe488       O498   1.960       .  S
Fe489       O507   2.086       .  S
Fe489       O494   2.056   1_556  S
Fe489       O501   2.065       .  S
Fe489       O490   2.087   1_556  S
Fe489       O498   1.954       .  S
O490        C497   1.276       .  A
O491        C505   1.264       .  A
O492        C497   1.275       .  A
O493        C496   1.266   1_554  A
O494        C506   1.270   1_554  A
O495        C508   1.277       .  A
C496        O501   1.265       .  A
C496        C589   1.485       .  S
C497        C573   1.496       .  S
O499        C502   1.268       .  A
O500        C502   1.269   1_554  A
C502        C602   1.498   1_556  S
O503        C508   1.269       .  A
O504        C506   1.277       .  A
C505        O507   1.273       .  A
C505        C637   1.483       .  S
C506       C1461   1.480   1_455  S
C508        C669   1.471       .  S
Fe509       O525   2.034       .  S
Fe509       O515   2.102       .  S
Fe509       O522   2.090       .  S
Fe509       O514   2.041   1_554  S
Fe509       O520   1.929       .  S
Fe510       O513   2.047       .  S
Fe510       O517   2.091       .  S
Fe510       O521   2.077       .  S
Fe510       O526   2.112       .  S
Fe510       O520   1.938       .  S
Fe511       O529   2.080       .  S
Fe511       O516   2.039   1_554  S
Fe511       O523   2.061       .  S
Fe511       O512   2.073   1_554  S
Fe511       O520   1.930       .  S
O512        C519   1.272       .  A
O513        C527   1.268       .  A
O514        C519   1.270       .  A
O515        C518   1.275       .  A
O517        C530   1.278       .  A
C518        O523   1.265       .  A
C518        C618   1.482       .  S
C519        C650   1.476       .  S
O521        C524   1.272       .  A
O522        C524   1.273       .  A
C524        C605   1.486       .  S
O525        C530   1.269       .  A
C527        O529   1.272       .  A
C527        C554   1.467       .  S
C528        C586   1.493   1_554  S
C530        C797   1.469       .  S
Fe531       O547   2.060       .  S
Fe531       O537   2.073       .  S
Fe531       O544   2.075       .  S
Fe531       O536   2.067       .  S
Fe531       O542   1.947       .  S
Fe532       O535   2.048       .  S
Fe532       O539   2.089       .  S
Fe532       O543   2.079       .  S
Fe532       O548   2.095       .  S
Fe532       O542   1.952       .  S
Fe533       O551   2.069       .  S
Fe533       O538   2.049       .  S
Fe533       O545   2.060       .  S
Fe533       O534   2.078       .  S
Fe533       O542   1.950       .  S
O534        C541   1.274       .  A
O535        C549   1.269       .  A
O536        C541   1.276       .  A
O537        C540   1.267       .  A
O538        C550   1.268       .  A
O539        C552   1.276       .  A
C540        O545   1.262       .  A
C540        C762   1.470       .  S
C541        C730   1.492       .  S
O543        C546   1.272       .  A
O544        C546   1.268       .  A
C546        C749   1.503       .  S
O547        C552   1.271       .  A
O548        C550   1.276       .  A
C549        O551   1.269       .  A
C549        C557   1.470       .  S
C552        C570   1.482       .  S
C553        C554   1.402       .  A
C553        H560   1.085       .  S
C555        C556   1.398       .  A
C555        C562   1.507       .  S
C556        C557   1.402       .  A
C556        H561   1.085       .  S
C557        C558   1.415   1_565  A
C559        H563   1.111       .  S
C559        H565   1.108       .  S
C562        H566   1.110       .  S
C562        H567   1.108       .  S
C562        H568   1.111       .  S
C569        C570   1.401       .  A
C569        C574   1.404       .  A
C569        H576   1.084       .  S
C570        C571   1.414       .  A
C571        C572   1.405       .  A
C571        C578   1.509       .  S
C572        C573   1.409       .  A
C572        H577   1.083       .  S
C573        C574   1.423       .  A
C574        C575   1.510       .  S
C575        H579   1.111       .  S
C575        H580   1.111       .  S
C575        H581   1.109       .  S
C578        H582   1.110       .  S
C578        H583   1.111       .  S
C578        H584   1.111       .  S
C585        C586   1.408       .  A
C585        C590   1.397       .  A
C585        H592   1.083       .  S
C586        C587   1.416   1_556  A
C587        C588   1.413       .  A
C587        C594   1.505       .  S
C588        C589   1.408   1_554  A
C588        H593   1.083       .  S
C589        C590   1.414       .  A
C590        C591   1.510       .  S
C591        H595   1.111       .  S
C591        H596   1.105       .  S
C591        H597   1.109       .  S
C594        H598   1.110   1_554  S
C594        H599   1.109       .  S
C594        H600   1.111       .  S
C601        C602   1.412   1_556  A
C601        C606   1.413       .  A
C601        H608   1.083       .  S
C602        C603   1.419       .  A
C603        C604   1.406       .  A
C603        C610   1.509       .  S
C604        C605   1.403       .  A
C604        H609   1.084       .  S
C605        C606   1.410   1_554  A
C606        C607   1.505       .  S
C607        H611   1.111       .  S
C607        H612   1.110       .  S
C607        H613   1.111       .  S
C610        H614   1.111       .  S
C610        H615   1.109       .  S
C610        H616   1.111       .  S
C617        C618   1.401   1_556  A
C617        C622   1.402       .  A
C617        H624   1.085       .  S
C618        C619   1.414       .  A
C619        C620   1.409       .  A
C619        C626   1.500       .  S
C620        C621   1.405   1_554  A
C620        H625   1.084       .  S
C621       C1346   1.480       .  S
C621        C622   1.415       .  A
C622        C623   1.506       .  S
C623        H627   1.111       .  S
C623        H628   1.110       .  S
C623        H629   1.105       .  S
C626        H630   1.110       .  S
C626        H631   1.101       .  S
C626        H632   1.111       .  S
C633       C1474   1.398   1_455  A
C633        C638   1.399       .  A
C633        H640   1.085       .  S
C634       C1473   1.398       .  A
C634        C635   1.411       .  A
C635        C636   1.405       .  A
C635        C642   1.507       .  S
C636       C1477   1.406       .  A
C636        H641   1.084       .  S
C637       C1476   1.407   1_455  A
C637        C638   1.421       .  A
C638        C639   1.508       .  S
C639        H643   1.111       .  S
C639        H644   1.103       .  S
C639        H645   1.111       .  S
C642        H646   1.109       .  S
C642        H647   1.110       .  S
C642        H648   1.111       .  S
C649        C650   1.404       .  A
C649        C654   1.396       .  A
C649        H656   1.084       .  S
C650        C651   1.419       .  A
C651        C652   1.398       .  A
C651        C658   1.510       .  S
C652        C653   1.400       .  A
C652        H657   1.085       .  S
C653        C654   1.411       .  A
C654        C655   1.505       .  S
C655        H659   1.111       .  S
C655        H660   1.110       .  S
C655        H661   1.108       .  S
C658        H662   1.111       .  S
C658        H663   1.109       .  S
C658        H664   1.111       .  S
C665        C666   1.403       .  A
C665        C670   1.401       .  A
C665        H672   1.085       .  S
C666        C667   1.420       .  A
C667        C668   1.402       .  A
C667        C674   1.509       .  S
C668        C669   1.398       .  A
C668        H673   1.085       .  S
C669        C670   1.418       .  A
C670        C671   1.510       .  S
C671        H675   1.109       .  S
C671        H676   1.110       .  S
C671        H677   1.107       .  S
C674        H678   1.110       .  S
C674        H679   1.108       .  S
C674        H680   1.111       .  S
C681        C682   1.401       .  A
C681        C686   1.396       .  A
C681        H688   1.085       .  S
C682       C1324   1.482   1_455  S
C682        C683   1.411       .  A
C683        C684   1.413       .  A
C683        C690   1.505       .  S
C684        C685   1.412       .  A
C684        H689   1.084       .  S
C685        C686   1.420       .  A
C686        C687   1.511       .  S
C687        H691   1.111       .  S
C687        H692   1.107       .  S
C687        H693   1.110       .  S
C690        H694   1.110       .  S
C690        H695   1.110       .  S
C690        H696   1.111       .  S
C697        C698   1.404       .  A
C697        H704   1.085       .  S
C698        C699   1.413       .  A
C699        C706   1.505       .  S
C700        C701   1.412       .  A
C700        H705   1.084       .  S
C701        C702   1.423       .  A
C702        C703   1.510       .  S
C703        H707   1.111       .  S
C703        H708   1.110       .  S
C703        H709   1.109       .  S
C706        H710   1.110       .  S
C706        H711   1.110       .  S
C706        H712   1.111       .  S
C713        C714   1.407       .  A
C713        C718   1.406       .  A
C713        H720   1.085       .  S
C714        C715   1.418       .  A
C715        C716   1.405       .  A
C715        C722   1.507       .  S
C716        C717   1.401       .  A
C716        H721   1.085       .  S
C717        C718   1.413       .  A
C718        C719   1.503       .  S
C719        H723   1.110       .  S
C719        H724   1.106       .  S
C719        H725   1.110       .  S
C722        H726   1.110       .  S
C722        H727   1.107       .  S
C722        H728   1.111       .  S
C729        C730   1.408       .  A
C729        C734   1.405       .  A
C729        H736   1.084       .  S
C730        C731   1.423       .  A
C731        C732   1.403       .  A
C731        C738   1.510       .  S
C732        C733   1.399       .  A
C732        H737   1.085       .  S
C733        C734   1.412       .  A
C734        C735   1.506       .  S
C735        H739   1.111       .  S
C735        H740   1.107       .  S
C735        H741   1.109       .  S
C738        H742   1.111       .  S
C738        H743   1.109       .  S
C738        H744   1.111       .  S
C745        C746   1.402       .  A
C745       C1590   1.403       .  A
C745        H752   1.082       .  S
C746        C747   1.415       .  A
C747       C1588   1.415       .  A
C747        C754   1.505       .  S
C748       C1587   1.415   1_455  A
C748        C749   1.412       .  A
C748        H753   1.083       .  S
C749        C750   1.423       .  A
C750       C1585   1.403   1_455  A
C750        C751   1.511       .  S
C751        H755   1.111       .  S
C751        H756   1.111       .  S
C751        H757   1.109       .  S
C754        H758   1.110       .  S
C754        H759   1.110       .  S
C754        H760   1.111       .  S
C761        C762   1.401       .  A
C761        C766   1.407       .  A
C761        H768   1.085       .  S
C762        C763   1.410       .  A
C763        C764   1.399       .  A
C763        C770   1.509       .  S
C764        C765   1.404       .  A
C764        H769   1.085       .  S
C765        C766   1.419       .  A
C766        C767   1.507       .  S
C767        H771   1.110       .  S
C767        H772   1.110       .  S
C767        H773   1.108       .  S
C770        H774   1.110       .  S
C770        H775   1.110       .  S
C770        H776   1.111       .  S
C777        C778   1.400       .  A
C777        C782   1.407       .  A
C777        H784   1.085       .  S
C778        C779   1.407       .  A
C779        C780   1.406       .  A
C779        C786   1.506       .  S
C780        C781   1.411       .  A
C780        H785   1.084       .  S
C781        C782   1.422       .  A
C782        C783   1.509       .  S
C783        H787   1.111       .  S
C783        H789   1.109       .  S
C786        H790   1.111       .  S
C786        H791   1.110       .  S
C786        H792   1.111       .  S
C793        C794   1.402       .  A
C793        C798   1.395       .  A
C793        H800   1.084       .  S
C794        C795   1.423       .  A
C795        C796   1.400       .  A
C795        C802   1.509       .  S
C796        C797   1.399       .  A
C796        H801   1.085       .  S
C797        C798   1.412       .  A
C798        C799   1.503       .  S
C799        H803   1.111       .  S
C799        H804   1.110       .  S
C799        H805   1.111       .  S
C802        H806   1.109       .  S
C802        H807   1.109       .  S
C802        H808   1.111       .  S
C809        C810   1.400       .  A
C809        C814   1.399       .  A
C809        H816   1.085       .  S
C810        C811   1.412       .  A
C811        C812   1.402       .  A
C811        C818   1.508       .  S
C812        C813   1.405       .  A
C812        H817   1.084       .  S
C813        C814   1.415       .  A
C814        C815   1.508       .  S
C815        H819   1.111       .  S
C815        H820   1.108       .  S
C815        H821   1.108       .  S
C818        H822   1.109       .  S
C818        H823   1.111       .  S
C818        H824   1.111       .  S
C825        C826   1.398       .  A
C825        C830   1.399       .  A
C825        H832   1.085       .  S
C826        C827   1.408       .  A
C827        C828   1.398       .  A
C827        C834   1.506       .  S
C828        C829   1.406       .  A
C828        H833   1.085       .  S
C829        C830   1.421       .  A
C830        C831   1.509       .  S
C831        H835   1.111       .  S
C831        H836   1.110       .  S
C831        H837   1.109       .  S
C834        H838   1.109       .  S
C834        H839   1.109       .  S
C834        H840   1.111       .  S
Fe841       O857   2.048       .  S
Fe841       O847   2.094       .  S
Fe841       O854   2.094       .  S
Fe841       O846   2.053       .  S
Fe841       O852   1.938       .  S
Fe842       O845   2.050       .  S
Fe842       O849   2.081       .  S
Fe842       O853   2.069       .  S
Fe842       O858   2.089       .  S
Fe842       O852   1.939       .  S
Fe843       O861   2.068       .  S
Fe843       O848   2.048       .  S
Fe843       O855   2.056       .  S
Fe843       O844   2.064       .  S
Fe843       O852   1.942       .  S
O844        C851   1.270       .  A
O845        C859   1.267       .  A
O846        C851   1.274       .  A
O847        C850   1.272       .  A
O848        C860   1.267       .  A
O849        C862   1.274       .  A
C850        O855   1.264       .  A
C850       C1198   1.475       .  S
C851       C1214   1.479       .  S
O853        C856   1.268       .  A
O854        C856   1.274       .  A
C856       C1166   1.494       .  S
O857        C862   1.270       .  A
O858        C860   1.276       .  A
C859        O861   1.269       .  A
C859       C1230   1.466       .  S
C860       C1185   1.479       .  S
C862       C1246   1.462       .  S
Fe863       O879   2.068       .  S
Fe863       O869   2.068       .  S
Fe863       O876   2.079       .  S
Fe863       O868   2.069       .  S
Fe863       O874   1.943       .  S
Fe864       O867   2.049       .  S
Fe864       O871   2.084       .  S
Fe864       O875   2.077       .  S
Fe864       O880   2.094       .  S
Fe864       O874   1.948       .  S
Fe865       O883   2.077       .  S
Fe865       O870   2.051       .  S
Fe865       O877   2.069       .  S
Fe865       O866   2.073       .  S
Fe865       O874   1.948       .  S
O866        C873   1.274       .  A
O867        C881   1.267       .  A
O868        C873   1.277       .  A
O869        C872   1.266       .  A
O870        C882   1.268       .  A
O871        C884   1.275       .  A
C872        O877   1.267       .  A
C872       C1105   1.492       .  S
C873       C1086   1.482       .  S
O875        C878   1.270       .  A
O876        C878   1.271       .  A
C878       C1118   1.493       .  S
O879        C884   1.272       .  A
O880        C882   1.276       .  A
C881        O883   1.271       .  A
C881       C1233   1.473       .  S
C882       C1134   1.485       .  S
C884       C1153   1.477       .  S
Fe885       O901   2.041       .  S
Fe885       O891   2.098       .  S
Fe885       O898   2.093       .  S
Fe885       O890   2.040       .  S
Fe885       O896   1.929       .  S
Fe886       O889   2.051       .  S
Fe886       O893   2.079       .  S
Fe886       O897   2.073       .  S
Fe886       O902   2.105       .  S
Fe886       O896   1.946       .  S
Fe887       O905   2.094       .  S
Fe887       O892   2.041       .  S
Fe887       O899   2.059       .  S
Fe887       O888   2.083       .  S
Fe887       O896   1.932       .  S
O888        C895   1.277       .  A
O889        C903   1.270       .  A
O890        C895   1.267       .  A
O891        C894   1.274       .  A
O892        C904   1.263       .  A
O893        C906   1.273       .  A
C894        O899   1.266       .  A
C894       C1137   1.478       .  S
C895       C1249   1.479       .  S
O897        C900   1.275       .  A
O898        C900   1.275       .  A
C900       C1121   1.502       .  S
O901        C906   1.267       .  A
O902        C904   1.272       .  A
C903        O905   1.276       .  A
C903       C1054   1.470       .  S
C906       C1073   1.467       .  S
Fe907       O923   2.053   1_554  S
Fe907       O913   2.072       .  S
Fe907       O920   2.084       .  S
Fe907       O912   2.061       .  S
Fe907       O918   1.955   1_554  S
Fe908       O911   2.040       .  S
Fe908       O915   2.088       .  S
Fe908       O919   2.071       .  S
Fe908       O924   2.093       .  S
Fe908       O918   1.960       .  S
Fe909       O927   2.086       .  S
Fe909       O914   2.056   1_556  S
Fe909       O921   2.065       .  S
Fe909       O910   2.087   1_556  S
Fe909       O918   1.954       .  S
O910        C917   1.276       .  A
O911        C925   1.264       .  A
O912        C917   1.275       .  A
O913        C916   1.266   1_554  A
O914        C926   1.270   1_554  A
O915        C928   1.277       .  A
C916        O921   1.265       .  A
C916       C1009   1.485       .  S
C917        C993   1.496       .  S
O919        C922   1.268       .  A
O920        C922   1.269   1_554  A
C922       C1022   1.498   1_556  S
O923        C928   1.269       .  A
O924        C926   1.277       .  A
C925        O927   1.273       .  A
C925       C1057   1.482       .  S
C928       C1089   1.471       .  S
Fe929       O945   2.034       .  S
Fe929       O935   2.102       .  S
Fe929       O942   2.090       .  S
Fe929       O934   2.041   1_554  S
Fe929       O940   1.929       .  S
Fe930       O933   2.047       .  S
Fe930       O937   2.091       .  S
Fe930       O941   2.077       .  S
Fe930       O946   2.112       .  S
Fe930       O940   1.938       .  S
Fe931       O949   2.080       .  S
Fe931       O936   2.039   1_554  S
Fe931       O943   2.061       .  S
Fe931       O932   2.073   1_554  S
Fe931       O940   1.930       .  S
O932        C939   1.272       .  A
O933        C947   1.268       .  A
O934        C939   1.270       .  A
O935        C938   1.275       .  A
O936       C1368   1.264   1_546  A
O937        C950   1.278       .  A
C938        O943   1.265       .  A
C938       C1038   1.482       .  S
C939       C1070   1.476       .  S
O941        C944   1.272       .  A
O942        C944   1.273       .  A
C944       C1025   1.486       .  S
O945        C950   1.269       .  A
O946       C1368   1.277   1_545  A
C947        O949   1.272       .  A
C947        C974   1.467       .  S
C948       O1356   1.264   1_554  A
C948       O1366   1.277       .  A
C948       C1006   1.493   1_554  S
C950       C1217   1.469       .  S
Fe951       O967   2.060       .  S
Fe951       O957   2.073       .  S
Fe951       O964   2.075       .  S
Fe951       O956   2.067       .  S
Fe951       O962   1.947       .  S
Fe952       O955   2.048       .  S
Fe952       O959   2.088       .  S
Fe952       O963   2.079       .  S
Fe952       O968   2.095       .  S
Fe952       O962   1.952       .  S
Fe953       O971   2.069       .  S
Fe953       O958   2.049       .  S
Fe953       O965   2.060       .  S
Fe953       O954   2.078       .  S
Fe953       O962   1.950       .  S
O954        C961   1.274       .  A
O955        C969   1.269       .  A
O956        C961   1.276       .  A
O957        C960   1.267       .  A
O958        C970   1.268       .  A
O959        C972   1.276       .  A
C960        O965   1.263       .  A
C960       C1182   1.470       .  S
C961       C1150   1.492       .  S
O963        C966   1.272       .  A
O964        C966   1.268       .  A
C966       C1169   1.503       .  S
O967        C972   1.271       .  A
O968        C970   1.276       .  A
C969        O971   1.269       .  A
C969        C977   1.470       .  S
C970       C1621   1.493       .  S
C972        C990   1.482       .  S
C973        C974   1.402       .  A
C973       C1398   1.401       .  A
C973        H980   1.085       .  S
C974       C1395   1.412   1_545  A
C975       C1394   1.412       .  A
C975        C976   1.398       .  A
C975        C982   1.507       .  S
C976        C977   1.402       .  A
C976        H981   1.085       .  S
C977        C978   1.415       .  A
C978       C1393   1.401       .  A
C978       C1399   1.508       .  S
C979       C1398   1.508       .  S
C979        H983   1.111       .  S
C979       H1404   1.110       .  S
C979        H985   1.108       .  S
C982        H986   1.110       .  S
C982        H987   1.108       .  S
C982        H988   1.111       .  S
H984       C1399   1.110       .  S
C989        C990   1.401       .  A
C989        C994   1.404       .  A
C989        H996   1.084       .  S
C990        C991   1.414       .  A
C991        C992   1.405       .  A
C991        C998   1.509       .  S
C992        C993   1.409       .  A
C992        H997   1.083       .  S
C993        C994   1.423       .  A
C994        C995   1.510       .  S
C995        H999   1.111       .  S
C995       H1000   1.111       .  S
C995       H1001   1.109       .  S
C998       H1002   1.110       .  S
C998       H1003   1.111       .  S
C998       H1004   1.111       .  S
C1005      C1006   1.408       .  A
C1005      C1010   1.397       .  A
C1005      H1012   1.083       .  S
C1006      C1007   1.416   1_556  A
C1007      C1008   1.413       .  A
C1007      C1014   1.505       .  S
C1008      C1009   1.408   1_554  A
C1008      H1013   1.083       .  S
C1009      C1010   1.414       .  A
C1010      C1011   1.510       .  S
C1011      H1015   1.111       .  S
C1011      H1016   1.105       .  S
C1011      H1017   1.109       .  S
C1014      H1018   1.110   1_554  S
C1014      H1019   1.109       .  S
C1014      H1020   1.111       .  S
C1021      C1022   1.412   1_556  A
C1021      C1026   1.413       .  A
C1021      H1028   1.083       .  S
C1022      C1023   1.419       .  A
C1023      C1024   1.406       .  A
C1023      C1030   1.509       .  S
C1024      C1025   1.403       .  A
C1024      H1029   1.084       .  S
C1025      C1026   1.410   1_554  A
C1026      C1027   1.505       .  S
C1027      H1031   1.111       .  S
C1027      H1032   1.110       .  S
C1027      H1033   1.111       .  S
C1030      H1034   1.111       .  S
C1030      H1035   1.109       .  S
C1030      H1036   1.111       .  S
C1037      C1038   1.401   1_556  A
C1037      C1042   1.402       .  A
C1037      H1044   1.085       .  S
C1038      C1039   1.414       .  A
C1039      C1040   1.409       .  A
C1039      C1046   1.500       .  S
C1040      C1041   1.405   1_554  A
C1040      H1045   1.084       .  S
C1041      C1042   1.415       .  A
C1042      C1043   1.506       .  S
C1043      H1047   1.111       .  S
C1043      H1048   1.110       .  S
C1043      H1049   1.105       .  S
C1046      H1050   1.110       .  S
C1046      H1051   1.101       .  S
C1046      H1052   1.111       .  S
C1053      C1058   1.399       .  A
C1053      H1060   1.085       .  S
C1054      C1055   1.411       .  A
C1055      C1056   1.405       .  A
C1055      C1062   1.507       .  S
C1056      H1061   1.084       .  S
C1057      C1058   1.421       .  A
C1058      C1059   1.508       .  S
C1059      H1063   1.111       .  S
C1059      H1064   1.103       .  S
C1059      H1065   1.111       .  S
C1062      H1066   1.109       .  S
C1062      H1067   1.110       .  S
C1062      H1068   1.111       .  S
C1069      C1070   1.404       .  A
C1069      C1074   1.396       .  A
C1069      H1076   1.084       .  S
C1070      C1071   1.419       .  A
C1071      C1072   1.398       .  A
C1071      C1078   1.510       .  S
C1072      C1073   1.400       .  A
C1072      H1077   1.085       .  S
C1073      C1074   1.411       .  A
C1074      C1075   1.505       .  S
C1075      H1079   1.111       .  S
C1075      H1080   1.110       .  S
C1075      H1081   1.108       .  S
C1078      H1082   1.111       .  S
C1078      H1083   1.109       .  S
C1078      H1084   1.111       .  S
C1085      C1086   1.403       .  A
C1085      C1090   1.401       .  A
C1085      H1092   1.085       .  S
C1086      C1087   1.420       .  A
C1087      C1088   1.402       .  A
C1087      C1094   1.509       .  S
C1088      C1089   1.398       .  A
C1088      H1093   1.085       .  S
C1089      C1090   1.418       .  A
C1090      C1091   1.510       .  S
C1091      H1095   1.109       .  S
C1091      H1096   1.110       .  S
C1091      H1097   1.107       .  S
C1094      H1098   1.110       .  S
C1094      H1099   1.108       .  S
C1094      H1100   1.111       .  S
C1101      C1102   1.401       .  A
C1101      C1106   1.396       .  A
C1101      H1108   1.085       .  S
C1102      C1103   1.411       .  A
C1103      C1104   1.413       .  A
C1103      C1110   1.505       .  S
C1104      C1105   1.412       .  A
C1104      H1109   1.084       .  S
C1105      C1106   1.420       .  A
C1106      C1107   1.511       .  S
C1107      H1111   1.111       .  S
C1107      H1112   1.107       .  S
C1107      H1113   1.110       .  S
C1110      H1114   1.110       .  S
C1110      H1115   1.110       .  S
C1110      H1116   1.111       .  S
C1117      C1118   1.404       .  A
C1117      C1542   1.404       .  A
C1117      H1124   1.085       .  S
C1118      C1119   1.413       .  A
C1119      C1540   1.414       .  A
C1119      C1126   1.505       .  S
C1120      C1539   1.413   1_545  A
C1120      C1121   1.412       .  A
C1120      H1125   1.084       .  S
C1121      C1122   1.423       .  A
C1122      C1537   1.404   1_545  A
C1122      C1123   1.510       .  S
C1123      H1127   1.111       .  S
C1123      H1128   1.110       .  S
C1123      H1129   1.109       .  S
C1126      H1130   1.110       .  S
C1126      H1131   1.110       .  S
C1126      H1132   1.111       .  S
C1133      C1134   1.407       .  A
C1133      C1138   1.406       .  A
C1133      H1140   1.085       .  S
C1134      C1135   1.418       .  A
C1135      C1136   1.405       .  A
C1135      C1142   1.507       .  S
C1136      C1137   1.401       .  A
C1136      H1141   1.085       .  S
C1137      C1138   1.413       .  A
C1138      C1139   1.503       .  S
C1139      H1143   1.110       .  S
C1139      H1144   1.106       .  S
C1139      H1145   1.110       .  S
C1142      H1146   1.110       .  S
C1142      H1147   1.107       .  S
C1142      H1148   1.111       .  S
C1149      C1150   1.408       .  A
C1149      C1154   1.405       .  A
C1149      H1156   1.084       .  S
C1150      C1151   1.423       .  A
C1151      C1152   1.403       .  A
C1151      C1158   1.510       .  S
C1152      C1153   1.399       .  A
C1152      H1157   1.085       .  S
C1153      C1154   1.412       .  A
C1154      C1155   1.506       .  S
C1155      H1159   1.111       .  S
C1155      H1160   1.107       .  S
C1155      H1161   1.109       .  S
C1158      H1162   1.111       .  S
C1158      H1163   1.109       .  S
C1158      H1164   1.111       .  S
C1165      C1166   1.402       .  A
C1165      H1172   1.082       .  S
C1166      C1167   1.415       .  A
C1167      C1174   1.505       .  S
C1168      C1169   1.412       .  A
C1168      H1173   1.083       .  S
C1169      C1170   1.423       .  A
C1170      C1171   1.511       .  S
C1171      H1175   1.111       .  S
C1171      H1176   1.111       .  S
C1171      H1177   1.109       .  S
C1174      H1178   1.110       .  S
C1174      H1179   1.110       .  S
C1174      H1180   1.111       .  S
C1181      C1182   1.401       .  A
C1181      C1186   1.407       .  A
C1181      H1188   1.085       .  S
C1182      C1183   1.410       .  A
C1183      C1184   1.399       .  A
C1183      C1190   1.509       .  S
C1184      C1185   1.404       .  A
C1184      H1189   1.085       .  S
C1185      C1186   1.419       .  A
C1186      C1187   1.507       .  S
C1187      H1191   1.110       .  S
C1187      H1192   1.110       .  S
C1187      H1193   1.108       .  S
C1190      H1194   1.110       .  S
C1190      H1195   1.110       .  S
C1190      H1196   1.111       .  S
C1197      C1198   1.400       .  A
C1197      C1202   1.407       .  A
C1197      H1204   1.085       .  S
C1198      C1199   1.407       .  A
C1199      C1200   1.406       .  A
C1199      C1206   1.506       .  S
C1200      C1201   1.411       .  A
C1200      H1205   1.084       .  S
C1201      C1390   1.493   1_545  S
C1201      C1202   1.422       .  A
C1202      C1203   1.509       .  S
C1203      H1207   1.111       .  S
C1203      H1628   1.110       .  S
C1203      H1209   1.109       .  S
C1206      H1210   1.111       .  S
C1206      H1211   1.110       .  S
C1206      H1212   1.111       .  S
H1208      C1623   1.110       .  S
C1213      C1214   1.402       .  A
C1213      C1218   1.395       .  A
C1213      H1220   1.084       .  S
C1214      C1215   1.423       .  A
C1215      C1216   1.400       .  A
C1215      C1222   1.509       .  S
C1216      C1217   1.399       .  A
C1216      H1221   1.085       .  S
C1217      C1218   1.412       .  A
C1218      C1219   1.503       .  S
C1219      H1223   1.111       .  S
C1219      H1224   1.110       .  S
C1219      H1225   1.111       .  S
C1222      H1226   1.109       .  S
C1222      H1227   1.109       .  S
C1222      H1228   1.111       .  S
C1229      C1230   1.400       .  A
C1229      C1234   1.399       .  A
C1229      H1236   1.085       .  S
C1230      C1231   1.412       .  A
C1231      C1232   1.402       .  A
C1231      C1238   1.508       .  S
C1232      C1233   1.405       .  A
C1232      H1237   1.084       .  S
C1233      C1234   1.415       .  A
C1234      C1235   1.508       .  S
C1235      H1239   1.111       .  S
C1235      H1240   1.108       .  S
C1235      H1241   1.108       .  S
C1238      H1242   1.109       .  S
C1238      H1243   1.110       .  S
C1238      H1244   1.111       .  S
C1245      C1246   1.398       .  A
C1245      C1250   1.399       .  A
C1245      H1252   1.085       .  S
C1246      C1247   1.408       .  A
C1247      C1248   1.398       .  A
C1247      C1254   1.506       .  S
C1248      C1249   1.406       .  A
C1248      H1253   1.085       .  S
C1249      C1250   1.421       .  A
C1250      C1251   1.509       .  S
C1251      H1255   1.111       .  S
C1251      H1256   1.110       .  S
C1251      H1257   1.109       .  S
C1254      H1258   1.109       .  S
C1254      H1259   1.109       .  S
C1254      H1260   1.111       .  S
Fe1261     O1277   2.048       .  S
Fe1261     O1267   2.094       .  S
Fe1261     O1274   2.094       .  S
Fe1261     O1266   2.053       .  S
Fe1261     O1272   1.938       .  S
Fe1262     O1265   2.051       .  S
Fe1262     O1269   2.081       .  S
Fe1262     O1273   2.069       .  S
Fe1262     O1278   2.089       .  S
Fe1262     O1272   1.939       .  S
Fe1263     O1281   2.068       .  S
Fe1263     O1268   2.048       .  S
Fe1263     O1275   2.056       .  S
Fe1263     O1264   2.064       .  S
Fe1263     O1272   1.942       .  S
O1264      C1271   1.270       .  A
O1265      C1279   1.267       .  A
O1266      C1271   1.274       .  A
O1267      C1270   1.272       .  A
O1268      C1280   1.267       .  A
O1269      C1282   1.274       .  A
C1270      O1275   1.264       .  A
C1270      C1618   1.475       .  S
C1271      C1634   1.479       .  S
O1273      C1276   1.268       .  A
O1274      C1276   1.274       .  A
C1276      C1586   1.494       .  S
O1277      C1282   1.270       .  A
O1278      C1280   1.276       .  A
C1279      O1281   1.269       .  A
C1279      C1650   1.466       .  S
C1280      C1605   1.479       .  S
C1282      C1666   1.462       .  S
Fe1283     O1299   2.068       .  S
Fe1283     O1289   2.068       .  S
Fe1283     O1296   2.079       .  S
Fe1283     O1288   2.069       .  S
Fe1283     O1294   1.943       .  S
Fe1284     O1287   2.048       .  S
Fe1284     O1291   2.084       .  S
Fe1284     O1295   2.077       .  S
Fe1284     O1300   2.094       .  S
Fe1284     O1294   1.948       .  S
Fe1285     O1303   2.077       .  S
Fe1285     O1290   2.051       .  S
Fe1285     O1297   2.069       .  S
Fe1285     O1286   2.073       .  S
Fe1285     O1294   1.948       .  S
O1286      C1293   1.274       .  A
O1287      C1301   1.267       .  A
O1288      C1293   1.277       .  A
O1289      C1292   1.266       .  A
O1290      C1302   1.268       .  A
O1291      C1304   1.275       .  A
C1292      O1297   1.267       .  A
C1292      C1525   1.492       .  S
C1293      C1506   1.481       .  S
O1295      C1298   1.270       .  A
O1296      C1298   1.271       .  A
C1298      C1538   1.493       .  S
O1299      C1304   1.272       .  A
O1300      C1302   1.276       .  A
C1301      O1303   1.271       .  A
C1301      C1653   1.473       .  S
C1302      C1554   1.485       .  S
C1304      C1573   1.477       .  S
Fe1305     O1321   2.041       .  S
Fe1305     O1311   2.098       .  S
Fe1305     O1318   2.093       .  S
Fe1305     O1310   2.040       .  S
Fe1305     O1316   1.929       .  S
Fe1306     O1309   2.051       .  S
Fe1306     O1313   2.079       .  S
Fe1306     O1317   2.073       .  S
Fe1306     O1322   2.105       .  S
Fe1306     O1316   1.946       .  S
Fe1307     O1325   2.094       .  S
Fe1307     O1312   2.041       .  S
Fe1307     O1319   2.059       .  S
Fe1307     O1308   2.083       .  S
Fe1307     O1316   1.932       .  S
O1308      C1315   1.277       .  A
O1309      C1323   1.270       .  A
O1310      C1315   1.267       .  A
O1311      C1314   1.274       .  A
O1312      C1324   1.263       .  A
O1313      C1326   1.273       .  A
C1314      O1319   1.266       .  A
C1314      C1557   1.478       .  S
C1315      C1669   1.479       .  S
O1317      C1320   1.275       .  A
O1318      C1320   1.275       .  A
C1320      C1541   1.503       .  S
O1321      C1326   1.267       .  A
O1322      C1324   1.272       .  A
C1323      O1325   1.276       .  A
C1323      C1474   1.470       .  S
C1326      C1493   1.467       .  S
Fe1327     O1343   2.053   1_554  S
Fe1327     O1333   2.071       .  S
Fe1327     O1340   2.084       .  S
Fe1327     O1332   2.061       .  S
Fe1327     O1338   1.955   1_554  S
Fe1328     O1331   2.040       .  S
Fe1328     O1335   2.088       .  S
Fe1328     O1339   2.071       .  S
Fe1328     O1344   2.093       .  S
Fe1328     O1338   1.960       .  S
Fe1329     O1347   2.086       .  S
Fe1329     O1334   2.056   1_556  S
Fe1329     O1341   2.065       .  S
Fe1329     O1330   2.086   1_556  S
Fe1329     O1338   1.954       .  S
O1330      C1337   1.276       .  A
O1331      C1345   1.264       .  A
O1332      C1337   1.275       .  A
O1333      C1336   1.266   1_554  A
O1334      C1346   1.270   1_554  A
O1335      C1348   1.277       .  A
C1336      O1341   1.265       .  A
C1336      C1429   1.485       .  S
C1337      C1413   1.496       .  S
O1339      C1342   1.268       .  A
O1340      C1342   1.269   1_554  A
C1342      C1442   1.498   1_556  S
O1343      C1348   1.269       .  A
O1344      C1346   1.277       .  A
C1345      O1347   1.272       .  A
C1345      C1477   1.482       .  S
C1348      C1509   1.471       .  S
Fe1349     O1365   2.034       .  S
Fe1349     O1355   2.102       .  S
Fe1349     O1362   2.090       .  S
Fe1349     O1354   2.041   1_554  S
Fe1349     O1360   1.929       .  S
Fe1350     O1353   2.047       .  S
Fe1350     O1357   2.091       .  S
Fe1350     O1361   2.077       .  S
Fe1350     O1366   2.112       .  S
Fe1350     O1360   1.938       .  S
Fe1351     O1369   2.080       .  S
Fe1351     O1356   2.039   1_554  S
Fe1351     O1363   2.061       .  S
Fe1351     O1352   2.073   1_554  S
Fe1351     O1360   1.930       .  S
O1352      C1359   1.272       .  A
O1353      C1367   1.268       .  A
O1354      C1359   1.270       .  A
O1355      C1358   1.275       .  A
O1357      C1370   1.278       .  A
C1358      O1363   1.265       .  A
C1358      C1458   1.482       .  S
C1359      C1490   1.476       .  S
O1361      C1364   1.272       .  A
O1362      C1364   1.273       .  A
C1364      C1445   1.486       .  S
O1365      C1370   1.269       .  A
C1367      O1369   1.272       .  A
C1367      C1394   1.467       .  S
C1368      C1426   1.493   1_554  S
C1370      C1637   1.469       .  S
Fe1371     O1387   2.060       .  S
Fe1371     O1377   2.073       .  S
Fe1371     O1384   2.075       .  S
Fe1371     O1376   2.067       .  S
Fe1371     O1382   1.947       .  S
Fe1372     O1375   2.048       .  S
Fe1372     O1379   2.088       .  S
Fe1372     O1383   2.079       .  S
Fe1372     O1388   2.095       .  S
Fe1372     O1382   1.952       .  S
Fe1373     O1391   2.069       .  S
Fe1373     O1378   2.049       .  S
Fe1373     O1385   2.060       .  S
Fe1373     O1374   2.078       .  S
Fe1373     O1382   1.950       .  S
O1374      C1381   1.274       .  A
O1375      C1389   1.269       .  A
O1376      C1381   1.276       .  A
O1377      C1380   1.267       .  A
O1378      C1390   1.268       .  A
O1379      C1392   1.276       .  A
C1380      O1385   1.263       .  A
C1380      C1602   1.470       .  S
C1381      C1570   1.492       .  S
O1383      C1386   1.272       .  A
O1384      C1386   1.268       .  A
C1386      C1589   1.503       .  S
O1387      C1392   1.271       .  A
O1388      C1390   1.276       .  A
C1389      O1391   1.269       .  A
C1389      C1397   1.470       .  S
C1392      C1410   1.482       .  S
C1393      C1394   1.402       .  A
C1393      H1400   1.085       .  S
C1395      C1396   1.398       .  A
C1395      C1402   1.507       .  S
C1396      C1397   1.402       .  A
C1396      H1401   1.085       .  S
C1397      C1398   1.415   1_565  A
C1399      H1403   1.111       .  S
C1399      H1405   1.108       .  S
C1402      H1406   1.110       .  S
C1402      H1407   1.108       .  S
C1402      H1408   1.111       .  S
C1409      C1410   1.401       .  A
C1409      C1414   1.404       .  A
C1409      H1416   1.084       .  S
C1410      C1411   1.414       .  A
C1411      C1412   1.405       .  A
C1411      C1418   1.509       .  S
C1412      C1413   1.409       .  A
C1412      H1417   1.083       .  S
C1413      C1414   1.423       .  A
C1414      C1415   1.510       .  S
C1415      H1419   1.111       .  S
C1415      H1420   1.111       .  S
C1415      H1421   1.109       .  S
C1418      H1422   1.110       .  S
C1418      H1423   1.111       .  S
C1418      H1424   1.111       .  S
C1425      C1426   1.408       .  A
C1425      C1430   1.397       .  A
C1425      H1432   1.083       .  S
C1426      C1427   1.416   1_556  A
C1427      C1428   1.413       .  A
C1427      C1434   1.505       .  S
C1428      C1429   1.408   1_554  A
C1428      H1433   1.083       .  S
C1429      C1430   1.414       .  A
C1430      C1431   1.510       .  S
C1431      H1435   1.111       .  S
C1431      H1436   1.105       .  S
C1431      H1437   1.109       .  S
C1434      H1438   1.110   1_554  S
C1434      H1439   1.109       .  S
C1434      H1440   1.111       .  S
C1441      C1442   1.412   1_556  A
C1441      C1446   1.413       .  A
C1441      H1448   1.083       .  S
C1442      C1443   1.419       .  A
C1443      C1444   1.406       .  A
C1443      C1450   1.509       .  S
C1444      C1445   1.403       .  A
C1444      H1449   1.084       .  S
C1445      C1446   1.410   1_554  A
C1446      C1447   1.505       .  S
C1447      H1451   1.111       .  S
C1447      H1452   1.110       .  S
C1447      H1453   1.111       .  S
C1450      H1454   1.111       .  S
C1450      H1455   1.109       .  S
C1450      H1456   1.111       .  S
C1457      C1458   1.401   1_556  A
C1457      C1462   1.402       .  A
C1457      H1464   1.085       .  S
C1458      C1459   1.414       .  A
C1459      C1460   1.409       .  A
C1459      C1466   1.500       .  S
C1460      C1461   1.405   1_554  A
C1460      H1465   1.084       .  S
C1461      C1462   1.415       .  A
C1462      C1463   1.506       .  S
C1463      H1467   1.111       .  S
C1463      H1468   1.110       .  S
C1463      H1469   1.105       .  S
C1466      H1470   1.110       .  S
C1466      H1471   1.101       .  S
C1466      H1472   1.111       .  S
C1473      C1478   1.399       .  A
C1473      H1480   1.085       .  S
C1474      C1475   1.411       .  A
C1475      C1476   1.405       .  A
C1475      C1482   1.507       .  S
C1476      H1481   1.084       .  S
C1477      C1478   1.421       .  A
C1478      C1479   1.508       .  S
C1479      H1483   1.111       .  S
C1479      H1484   1.103       .  S
C1479      H1485   1.111       .  S
C1482      H1486   1.109       .  S
C1482      H1487   1.110       .  S
C1482      H1488   1.111       .  S
C1489      C1490   1.404       .  A
C1489      C1494   1.396       .  A
C1489      H1496   1.084       .  S
C1490      C1491   1.419       .  A
C1491      C1492   1.398       .  A
C1491      C1498   1.510       .  S
C1492      C1493   1.400       .  A
C1492      H1497   1.085       .  S
C1493      C1494   1.411       .  A
C1494      C1495   1.505       .  S
C1495      H1499   1.111       .  S
C1495      H1500   1.110       .  S
C1495      H1501   1.108       .  S
C1498      H1502   1.111       .  S
C1498      H1503   1.109       .  S
C1498      H1504   1.111       .  S
C1505      C1506   1.403       .  A
C1505      C1510   1.401       .  A
C1505      H1512   1.085       .  S
C1506      C1507   1.420       .  A
C1507      C1508   1.402       .  A
C1507      C1514   1.509       .  S
C1508      C1509   1.398       .  A
C1508      H1513   1.085       .  S
C1509      C1510   1.418       .  A
C1510      C1511   1.510       .  S
C1511      H1515   1.109       .  S
C1511      H1516   1.110       .  S
C1511      H1517   1.107       .  S
C1514      H1518   1.110       .  S
C1514      H1519   1.108       .  S
C1514      H1520   1.111       .  S
C1521      C1522   1.401       .  A
C1521      C1526   1.396       .  A
C1521      H1528   1.085       .  S
C1522      C1523   1.411       .  A
C1523      C1524   1.413       .  A
C1523      C1530   1.505       .  S
C1524      C1525   1.412       .  A
C1524      H1529   1.084       .  S
C1525      C1526   1.420       .  A
C1526      C1527   1.511       .  S
C1527      H1531   1.111       .  S
C1527      H1532   1.107       .  S
C1527      H1533   1.110       .  S
C1530      H1534   1.110       .  S
C1530      H1535   1.110       .  S
C1530      H1536   1.111       .  S
C1537      C1538   1.404       .  A
C1537      H1544   1.085       .  S
C1538      C1539   1.413       .  A
C1539      C1546   1.505       .  S
C1540      C1541   1.412       .  A
C1540      H1545   1.084       .  S
C1541      C1542   1.423       .  A
C1542      C1543   1.510       .  S
C1543      H1547   1.111       .  S
C1543      H1548   1.110       .  S
C1543      H1549   1.109       .  S
C1546      H1550   1.110       .  S
C1546      H1551   1.110       .  S
C1546      H1552   1.111       .  S
C1553      C1554   1.407       .  A
C1553      C1558   1.406       .  A
C1553      H1560   1.085       .  S
C1554      C1555   1.418       .  A
C1555      C1556   1.405       .  A
C1555      C1562   1.507       .  S
C1556      C1557   1.401       .  A
C1556      H1561   1.085       .  S
C1557      C1558   1.413       .  A
C1558      C1559   1.503       .  S
C1559      H1563   1.110       .  S
C1559      H1564   1.106       .  S
C1559      H1565   1.110       .  S
C1562      H1566   1.110       .  S
C1562      H1567   1.107       .  S
C1562      H1568   1.111       .  S
C1569      C1570   1.408       .  A
C1569      C1574   1.405       .  A
C1569      H1576   1.084       .  S
C1570      C1571   1.423       .  A
C1571      C1572   1.403       .  A
C1571      C1578   1.510       .  S
C1572      C1573   1.399       .  A
C1572      H1577   1.085       .  S
C1573      C1574   1.412       .  A
C1574      C1575   1.506       .  S
C1575      H1579   1.111       .  S
C1575      H1580   1.107       .  S
C1575      H1581   1.109       .  S
C1578      H1582   1.111       .  S
C1578      H1583   1.109       .  S
C1578      H1584   1.111       .  S
C1585      C1586   1.402       .  A
C1585      H1592   1.082       .  S
C1586      C1587   1.415       .  A
C1587      C1594   1.505       .  S
C1588      C1589   1.412       .  A
C1588      H1593   1.083       .  S
C1589      C1590   1.423       .  A
C1590      C1591   1.511       .  S
C1591      H1595   1.111       .  S
C1591      H1596   1.111       .  S
C1591      H1597   1.109       .  S
C1594      H1598   1.110       .  S
C1594      H1599   1.110       .  S
C1594      H1600   1.111       .  S
C1601      C1602   1.401       .  A
C1601      C1606   1.407       .  A
C1601      H1608   1.085       .  S
C1602      C1603   1.410       .  A
C1603      C1604   1.399       .  A
C1603      C1610   1.509       .  S
C1604      C1605   1.404       .  A
C1604      H1609   1.085       .  S
C1605      C1606   1.419       .  A
C1606      C1607   1.507       .  S
C1607      H1611   1.110       .  S
C1607      H1612   1.110       .  S
C1607      H1613   1.108       .  S
C1610      H1614   1.110       .  S
C1610      H1615   1.110       .  S
C1610      H1616   1.111       .  S
C1617      C1618   1.400       .  A
C1617      C1622   1.407       .  A
C1617      H1624   1.085       .  S
C1618      C1619   1.407       .  A
C1619      C1620   1.406       .  A
C1619      C1626   1.506       .  S
C1620      C1621   1.411       .  A
C1620      H1625   1.084       .  S
C1621      C1622   1.422       .  A
C1622      C1623   1.509       .  S
C1623      H1627   1.111       .  S
C1623      H1629   1.109       .  S
C1626      H1630   1.111       .  S
C1626      H1631   1.110       .  S
C1626      H1632   1.111       .  S
C1633      C1634   1.402       .  A
C1633      C1638   1.395       .  A
C1633      H1640   1.084       .  S
C1634      C1635   1.423       .  A
C1635      C1636   1.400       .  A
C1635      C1642   1.509       .  S
C1636      C1637   1.399       .  A
C1636      H1641   1.085       .  S
C1637      C1638   1.412       .  A
C1638      C1639   1.503       .  S
C1639      H1643   1.111       .  S
C1639      H1644   1.110       .  S
C1639      H1645   1.111       .  S
C1642      H1646   1.109       .  S
C1642      H1647   1.109       .  S
C1642      H1648   1.111       .  S
C1649      C1650   1.400       .  A
C1649      C1654   1.399       .  A
C1649      H1656   1.085       .  S
C1650      C1651   1.412       .  A
C1651      C1652   1.402       .  A
C1651      C1658   1.508       .  S
C1652      C1653   1.405       .  A
C1652      H1657   1.084       .  S
C1653      C1654   1.415       .  A
C1654      C1655   1.508       .  S
C1655      H1659   1.111       .  S
C1655      H1660   1.108       .  S
C1655      H1661   1.108       .  S
C1658      H1662   1.109       .  S
C1658      H1663   1.111       .  S
C1658      H1664   1.111       .  S
C1665      C1666   1.398       .  A
C1665      C1670   1.399       .  A
C1665      H1672   1.085       .  S
C1666      C1667   1.408       .  A
C1667      C1668   1.398       .  A
C1667      C1674   1.506       .  S
C1668      C1669   1.406       .  A
C1668      H1673   1.085       .  S
C1669      C1670   1.421       .  A
C1670      C1671   1.509       .  S
C1671      H1675   1.111       .  S
C1671      H1676   1.110       .  S
C1671      H1677   1.109       .  S
C1674      H1678   1.109       .  S
C1674      H1679   1.109       .  S
C1674      H1680   1.111       .  S
