geometry optimzed in LAMMPS
_audit_creation_date              2020-12-01 
_audit_creation_method            'lammps2cif' 
_symmetry_space_group_name_H-M    'P1' 
_symmetry_Int_Tables_number       1 
_symmetry_cell_setting            triclinic 
loop_ 
_symmetry_equiv_pos_as_xyz 
  x,y,z 
_cell_length_a                    38.24775483 
_cell_length_b                    38.09304686179058 
_cell_length_c                    44.110291254387406 
_cell_angle_alpha                 90.33914733820632 
_cell_angle_beta                  88.95993862028433 
_cell_angle_gamma                 89.7168160874286 
loop_ 
_atom_site_label 
_atom_site_type_symbol 
_atom_site_fract_x 
_atom_site_fract_y 
_atom_site_fract_z 
_atom_site_charge 
O1          O  0.41368743  0.83473015  0.13508344    -0.82300
C2          C  0.33610429  0.89142662  0.23246772     0.97100
O3          O  0.36334525  0.90547073  0.22133414    -0.71400
O4          O  0.40177186  0.85014665  0.22204889    -0.75000
Al5        Al  0.39591771  0.88447791  0.19281041     1.49000
C6          C  0.41953552  0.82326651  0.21590338     0.92300
O7          O  0.34203476  0.79136185  0.18151646    -0.78000
O8          O  0.32508252  0.87405653  0.12963415    -0.74800
Al9        Al  0.37780667  0.81617388  0.15964663     1.90100
O10         O  0.30025899  0.82849495  0.17119042    -0.73900
O11         O  0.33323808  0.92235485  0.17110442    -0.73700
O12         O  0.31642104  0.87338418  0.21563478    -0.79400
O13         O  0.39030403  0.92165891  0.16481285    -0.77600
O14         O  0.36526481  0.85789259  0.17453120    -1.13700
O15         O  0.43664284  0.86827014  0.16943717    -0.72900
C16         C  0.44016848  0.84853098  0.14634836     0.97800
C17         C  0.31008262  0.79758401  0.17667150     0.94200
Al18       Al  0.32176925  0.87335094  0.17217003     1.55600
O19         O  0.41231267  0.80545019  0.19217173    -0.77500
C20         C  0.36144793  0.93807008  0.16439018     0.98400
C21         C  0.33448632  0.84849725  0.11297374     0.93300
O22         O  0.34870942  0.82120990  0.12417433    -0.82800
O23         O  0.35528406  0.82535582  0.47265317    -0.82300
C24         C  0.35090101  0.88668306  0.36033862     0.97100
O25         O  0.32970014  0.87591463  0.38033365    -0.71400
O26         O  0.31353965  0.83038226  0.42217852    -0.75000
Al27       Al  0.33487141  0.87609941  0.42311468     1.49000
C28         C  0.32495288  0.79964354  0.41641346     0.92300
O29         O  0.42625366  0.80428448  0.41569545    -0.81200
O30         O  0.44751715  0.87358246  0.42900975    -0.74800
Al31       Al  0.38898807  0.82016487  0.44130236     1.90100
O32         O  0.42449416  0.83964065  0.37717823    -0.73900
O33         O  0.40423299  0.92538766  0.41844724    -0.73700
O34         O  0.38240291  0.89276388  0.36657325    -0.79400
O35         O  0.34736388  0.92532640  0.42364961    -0.77600
O36         O  0.37846461  0.85932645  0.42114291    -1.13700
O37         O  0.33425348  0.87810454  0.46670974    -0.72900
C38         C  0.33939937  0.85168079  0.48325353     0.97800
C39         C  0.43656265  0.81256073  0.38955829     0.94200
Al40       Al  0.41169362  0.88098812  0.39960947     1.55600
O41         O  0.35725016  0.79247719  0.41837082    -0.77500
C42         C  0.37606633  0.94177071  0.42359256     0.98400
C43         C  0.44696209  0.86227102  0.45598671     0.93300
O44         O  0.42120090  0.84477651  0.46606681    -0.82800
O45         O  0.34785207  0.20329635  0.14108713    -0.82300
C46         C  0.33477011  0.14128389  0.25072675     0.97100
O47         O  0.31515068  0.15591573  0.23181566    -0.71400
O48         O  0.30284568  0.20001605  0.18824514    -0.75000
Al49       Al  0.32100814  0.15313422  0.18875055     1.49000
C50         C  0.31514553  0.22779976  0.19966313     0.92300
O51         O  0.41710314  0.21450403  0.20401508    -0.81200
O52         O  0.43476996  0.14875267  0.18426734    -0.74800
Al53       Al  0.37984441  0.20552534  0.17467273     1.90100
O54         O  0.40223385  0.17580077  0.23758283    -0.73900
O55         O  0.38714076  0.10059797  0.18550984    -0.73700
O56         O  0.36090769  0.12354116  0.24128044    -0.79400
O57         O  0.32993988  0.10287870  0.18813756    -0.77600
O58         O  0.36517780  0.16560922  0.19095014    -1.13700
O59         O  0.32458673  0.15082865  0.14622702    -0.72900
C60         C  0.33479750  0.17573666  0.12953898     0.97800
C61         C  0.42252847  0.19938742  0.22911214     0.94200
Al62       Al  0.39432038  0.13906400  0.21080446     1.55600
O63         O  0.34792031  0.23265925  0.19952902    -0.77500
C64         C  0.35801069  0.08639144  0.18146660     0.98400
C65         C  0.43660318  0.16221823  0.15797390     0.93300
O66         O  0.41221344  0.18171352  0.14880697    -0.82800
O67         O  0.35093328  0.20440253  0.38590343    -0.82300
C68         C  0.35302938  0.15667957  0.00151419     0.97100
O69         O  0.33281583  0.16688600  0.48363365    -0.71400
O70         O  0.31063005  0.20452991  0.43915735    -0.75000
Al71       Al  0.33465590  0.15984170  0.44139528     1.49000
C72         C  0.32182930  0.23394746  0.44824058     0.92300
O73         O  0.42221508  0.23432860  0.44137865    -0.81200
O74         O  0.44711138  0.16614962  0.42715897    -0.74800
Al75       Al  0.38524990  0.21580175  0.41683332     1.90100
O76         O  0.42308380  0.19792323  0.47950316    -0.73900
O77         O  0.40494283  0.11162674  0.43879968    -0.73700
O78         O  0.38229368  0.14392917  0.99298211    -0.79400
O79         O  0.34817268  0.11110685  0.44507709    -0.77600
O80         O  0.37768348  0.17703080  0.43848332    -1.13700
O81         O  0.33367879  0.15167547  0.39914401    -0.72900
C82         C  0.33925160  0.17425631  0.37885261     0.97800
C83         C  0.43430464  0.22514925  0.46658687     0.94200
Al84       Al  0.41205843  0.15631094  0.45796276     1.55600
O85         O  0.35305454  0.24223542  0.44201367    -0.77500
C86         C  0.37652689  0.09478499  0.43969948     0.98400
C87         C  0.44736766  0.18064795  0.40129397     0.93300
O88         O  0.41954427  0.19386735  0.39105958    -0.82800
O89         O  0.65409078  0.81917387  0.01101664    -0.82300
C90         C  0.66744995  0.87586039  0.12245573     0.97100
O91         O  0.68697939  0.86282144  0.10196371    -0.71400
O92         O  0.69910783  0.82012249  0.05693170    -0.75000
Al93       Al  0.68040186  0.86759278  0.05966509     1.49000
C94         C  0.68643921  0.79222494  0.06830807     0.92300
O95         O  0.58417726  0.80493707  0.07509114    -0.81200
O96         O  0.56710289  0.87207549  0.05959658    -0.74800
Al97       Al  0.62187328  0.81562583  0.04555348     1.90100
O98         O  0.59805342  0.84152374  0.11058610    -0.73900
O99         O  0.61416946  0.92034456  0.06290112    -0.73700
O100        O  0.64040338  0.89312618  0.11563869    -0.79400
O101        O  0.67136346  0.91819279  0.06226093    -0.77600
O102        O  0.63629452  0.85473285  0.06331314    -1.13700
O103        O  0.67576610  0.87211252  0.01699815    -0.72900
C104        C  0.66590018  0.84752616  0.99980919     0.97800
C105        C  0.57799715  0.81838296  0.10105321     0.94200
Al106      Al  0.60698952  0.87991524  0.08561389     1.55600
O107        O  0.65359284  0.78767125  0.06853564    -0.77500
C108        C  0.64306728  0.93539503  0.05938260     0.98400
C109        C  0.56572492  0.86015604  0.03268384     0.93300
O110        O  0.58987670  0.84078735  0.02192505    -0.82800
O111        O  0.65027527  0.80770032  0.25511304    -0.82300
C112        C  0.64755586  0.86040470  0.37145391     0.97100
O113        O  0.66926253  0.84763568  0.35251921    -0.71400
O114        O  0.69090893  0.80924317  0.30665567    -0.75000
Al115      Al  0.66753368  0.85350230  0.30986203     1.49000
C116        C  0.67995124  0.77971892  0.31533036     0.92300
O117        O  0.57903006  0.78039915  0.31386953    -0.81200
O118        O  0.55525215  0.84748788  0.29938780    -0.74800
Al119      Al  0.61617346  0.79729333  0.28730793     1.90100
O120        O  0.58050043  0.81812281  0.35146738    -0.73900
O121        O  0.59775963  0.90119974  0.30704122    -0.73700
O122        O  0.61881240  0.87307381  0.36248729    -0.79400
O123        O  0.65431575  0.90223710  0.31306035    -0.77600
O124        O  0.62450018  0.83657308  0.30826041    -1.13700
O125        O  0.66877693  0.86025173  0.26793051    -0.72900
C126        C  0.66305426  0.83737650  0.24790415     0.97800
C127        C  0.56761870  0.79127196  0.33937180     0.94200
Al128      Al  0.59064872  0.85844425  0.32843370     1.55600
O129        O  0.64855797  0.77126526  0.31102310    -0.77500
C130        C  0.62626073  0.91771919  0.30606719     0.98400
C131        C  0.55454282  0.83303735  0.27341644     0.93300
O132        O  0.58179671  0.81854759  0.26238681    -0.82800
O133        O  0.65098913  0.19757544  0.09411021    -0.82300
C134        C  0.65405006  0.14093145  0.97855910     0.97100
O135        O  0.67530960  0.15547179  0.99632194    -0.71400
O136        O  0.69281507  0.19706866  0.04211034    -0.75000
Al137      Al  0.67217227  0.15181335  0.03976350     1.49000
C138        C  0.68182419  0.22820342  0.03933496     0.92300
O139        O  0.58019813  0.22170509  0.03838674    -0.81200
O140        O  0.55904886  0.15128558  0.05246998    -0.74800
Al141      Al  0.61734069  0.20554233  0.06344288     1.90100
O142        O  0.58020551  0.18484986  0.00017077    -0.73900
O143        O  0.60502350  0.10105512  0.04133519    -0.73700
O144        O  0.62377841  0.13246126  0.98780323    -0.79400
O145        O  0.66196236  0.10298032  0.03714913    -0.77600
O146        O  0.62807835  0.16732482  0.04148992    -1.13700
O147        O  0.67303010  0.14583545  0.08282016    -0.72900
C148        C  0.66591143  0.16957538  0.10211568     0.97800
C149        C  0.56837580  0.21215900  0.01314454     0.94200
Al150      Al  0.59492478  0.14434425  0.02202867     1.55600
O151        O  0.64932950  0.23470153  0.04095933    -0.77500
C152        C  0.63433593  0.08574893  0.04145850     0.98400
C153        C  0.55906229  0.16311468  0.07929287     0.93300
O154        O  0.58469788  0.18069869  0.08866356    -0.82800
O155        O  0.58422376  0.17318411  0.25773712    -0.82300
C156        C  0.66123875  0.11848034  0.35174693     0.97100
O157        O  0.63330157  0.10435821  0.34280875    -0.71400
O158        O  0.59489542  0.15998966  0.34456964    -0.75000
Al159      Al  0.60035281  0.12458721  0.31538713     1.49000
C160        C  0.57983085  0.18834155  0.33863765     0.92300
O161        O  0.65691431  0.21494848  0.30131672    -0.81200
O162        O  0.67001959  0.13171923  0.24683033    -0.74800
Al163      Al  0.62039965  0.19140015  0.28067703     1.90100
O164        O  0.69729261  0.17718407  0.28741938    -0.73900
O165        O  0.66129660  0.08361634  0.29061359    -0.73700
O166        O  0.68124172  0.13393216  0.33293932    -0.79400
O167        O  0.60418873  0.08562504  0.28823339    -0.77600
O168        O  0.63158597  0.14955384  0.29502200    -1.13700
O169        O  0.56003402  0.14128807  0.29316803    -0.72900
C170        C  0.55732078  0.16071327  0.27004275     0.97800
C171        C  0.68812861  0.20847809  0.29311607     0.94200
Al172      Al  0.67445223  0.13267296  0.28995829     1.55600
O173        O  0.58724572  0.20411136  0.31399178    -0.77500
C174        C  0.63234939  0.06803868  0.28724060     0.98400
C175        C  0.66298920  0.15904398  0.23166398     0.93300
O176        O  0.64876808  0.18571211  0.24435637    -0.82800
O177        O  0.80510550  0.65891295  0.18546669    -0.82300
C178        C  0.85849762  0.65628069  0.06988677     0.97100
O179        O  0.84781925  0.67824727  0.08932851    -0.71400
O180        O  0.80872610  0.70047814  0.13382366    -0.75000
Al181      Al  0.85284269  0.67556771  0.13151392     1.49000
C182        C  0.77865285  0.69037513  0.12606235     0.92300
O183        O  0.77756537  0.58822453  0.12713021    -0.81200
O184        O  0.84385427  0.56249597  0.14162854    -0.74800
Al185      Al  0.79504489  0.62508340  0.15346038     1.90100
O186        O  0.81552408  0.58950219  0.08958351    -0.73900
O187        O  0.89959603  0.60371596  0.13239406    -0.73700
O188        O  0.87084051  0.62690364  0.07798427    -0.79400
O189        O  0.90159589  0.66081110  0.12846287    -0.77600
O190        O  0.83489784  0.63270915  0.13276538    -1.13700
O191        O  0.85833796  0.67641562  0.17364931    -0.72900
C192        C  0.83412435  0.67225320  0.19305644     0.97800
C193        C  0.78832023  0.57696975  0.10156554     0.94200
Al194      Al  0.85592509  0.59834961  0.11221982     1.55600
O195        O  0.77013180  0.65864771  0.12975138    -0.77500
C196        C  0.91707958  0.63178328  0.13283339     0.98400
C197        C  0.82847705  0.56195872  0.16744156     0.93300
O198        O  0.81515316  0.58986627  0.17840970    -0.82800
O199        O  0.80914490  0.65832463  0.43210275    -0.82300
C200        C  0.86168590  0.67962771  0.31920445     0.97100
O201        O  0.84625645  0.69701251  0.33994447    -0.71400
O202        O  0.80463845  0.70383720  0.38720835    -0.75000
Al203      Al  0.85278444  0.68987250  0.38203003     1.49000
C204        C  0.77808184  0.68903139  0.37607381     0.92300
O205        O  0.79882760  0.58847572  0.36834772    -0.81200
O206        O  0.86744019  0.57694575  0.38167615    -0.74800
Al207      Al  0.80702304  0.62645590  0.39756897     1.90100
O208        O  0.83305269  0.60541548  0.33163538    -0.73900
O209        O  0.91028856  0.62873450  0.37723558    -0.73700
O210        O  0.88004362  0.65296814  0.32538342    -0.79400
O211        O  0.90308604  0.68581100  0.37710793    -0.77600
O212        O  0.84383639  0.64461490  0.37854418    -1.13700
O213        O  0.85949095  0.68464691  0.42411701    -0.72900
C214        C  0.83698851  0.67191491  0.44220511     0.97800
C215        C  0.81221768  0.58326521  0.34218194     0.94200
Al216      Al  0.87079037  0.61788828  0.35558895     1.55600
O217        O  0.77612341  0.65587311  0.37563495    -0.77500
C218        C  0.92273907  0.65906738  0.37870437     0.98400
C219        C  0.85631204  0.57428746  0.40885702     0.93300
O220        O  0.83527850  0.59655075  0.42014839    -0.82800
O221        O  0.17020072  0.58561522  0.18393799    -0.82300
C222        C  0.12823430  0.66084276  0.08204739     0.97100
O223        O  0.12018065  0.62921606  0.08747909    -0.71400
O224        O  0.17584227  0.58884380  0.09596165    -0.75000
Al225      Al  0.13366942  0.59743079  0.11903873     1.49000
C226        C  0.20303074  0.57673153  0.10799595     0.92300
O227        O  0.21771492  0.65790352  0.14278849    -0.81200
O228        O  0.12687456  0.66943594  0.18808837    -0.74800
Al229      Al  0.19183228  0.62151655  0.16217902     1.90100
O230        O  0.17707988  0.69783536  0.15040709    -0.73900
O231        O  0.08590221  0.65831955  0.14009593    -0.73700
O232        O  0.13943753  0.68079401  0.10262072    -0.79400
O233        O  0.08833293  0.60107992  0.13864322    -0.77600
O234        O  0.15301418  0.63055124  0.14193258    -1.13700
O235        O  0.14462508  0.55921080  0.14607943    -0.72900
C236        C  0.15882023  0.55810462  0.17185197     0.97800
C237        C  0.20914246  0.68958534  0.14768293     0.94200
Al238      Al  0.13378506  0.67306985  0.14488660     1.55600
O239        O  0.21165160  0.58759476  0.13389492    -0.77500
C240        C  0.07039979  0.62903157  0.14046823     0.98400
C241        C  0.15241597  0.66523956  0.20564504     0.93300
O242        O  0.18054982  0.65133523  0.19591349    -0.82800
O243        O  0.18496035  0.66319518  0.34454698    -0.82300
C244        C  0.12196016  0.68187219  0.45631464     0.97100
O245        O  0.14059340  0.69991051  0.43823955    -0.71400
O246        O  0.18514029  0.71156130  0.39224336    -0.75000
Al247      Al  0.13824591  0.69424106  0.39492322     1.49000
C248        C  0.21463204  0.69837038  0.39814750     0.92300
O249        O  0.19827237  0.59757164  0.41073993    -0.81200
O250        O  0.13159062  0.57913706  0.39361857    -0.74800
Al251      Al  0.18857366  0.63288940  0.37950358     1.90100
O252        O  0.15788036  0.61066166  0.44471224    -0.73900
O253        O  0.08485521  0.62972233  0.39243066    -0.73700
O254        O  0.10645991  0.65484080  0.44692320    -0.79400
O255        O  0.08837950  0.68709499  0.39638241    -0.77600
O256        O  0.14984638  0.64926826  0.39723512    -1.13700
O257        O  0.13492378  0.69120675  0.35214334    -0.72900
C258        C  0.15869037  0.67972090  0.33441561     0.97800
C259        C  0.18348686  0.59206352  0.43636587     0.94200
Al260      Al  0.12233342  0.62077594  0.41778895     1.55600
O261        O  0.21801814  0.66541762  0.40035025    -0.77500
C262        C  0.07102571  0.65970178  0.39064301     0.98400
C263        C  0.14536689  0.57514240  0.36758022     0.93300
O264        O  0.16396976  0.59912374  0.35624319    -0.82800
O265        O  0.82901190  0.41941003  0.30781873    -0.82300
C266        C  0.88198015  0.34165755  0.20953490     0.97100
O267        O  0.89770709  0.36732744  0.22137835    -0.71400
O268        O  0.84540496  0.41043743  0.22090308    -0.75000
Al269      Al  0.87810734  0.40026223  0.25028729     1.49000
C270        C  0.81785195  0.42730813  0.22699359     0.92300
O271        O  0.78110815  0.35108784  0.26217441    -0.81200
O272        O  0.86213662  0.32716072  0.31209997    -0.74800
Al273      Al  0.80842411  0.38494270  0.28345268     1.90100
O274        O  0.81658506  0.30692861  0.26966374    -0.73900
O275        O  0.91118104  0.33424135  0.27115235    -0.73700
O276        O  0.86252627  0.32236506  0.22591791    -0.79400
O277        O  0.91349743  0.39115588  0.27888276    -0.77600
O278        O  0.84914998  0.37039813  0.26786491    -1.13700
O279        O  0.86419079  0.44106302  0.27361507    -0.72900
C280        C  0.84445474  0.44531604  0.29658036     0.97800
C281        C  0.78628546  0.31851139  0.26518102     0.94200
Al282      Al  0.86199481  0.32581567  0.26943543     1.55600
O283        O  0.79992758  0.41999164  0.25090277    -0.77500
C284        C  0.92749112  0.36105930  0.28020840     0.98400
C285        C  0.83782451  0.33838585  0.32938707     0.93300
O286        O  0.81167743  0.35494471  0.31887805    -0.82800
O287        O  0.81850471  0.36364315  0.46870202    -0.82300
C288        C  0.87580691  0.35719365  0.08122144     0.97100
O289        O  0.86471670  0.33611181  0.06147663    -0.71400
O290        O  0.82098860  0.32096772  0.01825926    -0.75000
Al291      Al  0.86693306  0.34130203  0.01856505     1.49000
C292        C  0.79047862  0.33280430  0.02406131     0.92300
O293        O  0.79726790  0.43478272  0.02491768    -0.81200
O294        O  0.86944396  0.45434771  0.51047105    -0.74800
Al295      Al  0.81356297  0.39812648  0.49946229     1.90100
O296        O  0.83209458  0.43258988  0.06331839    -0.73900
O297        O  0.91768042  0.40928968  0.02252967    -0.73700
O298        O  0.88341647  0.38848244  0.07451748    -0.79400
O299        O  0.91615822  0.35184805  0.52011490    -0.77600
O300        O  0.85120282  0.38536213  0.02008415    -1.13700
O301        O  0.87045719  0.34121980  0.47550012    -0.72900
C302        C  0.84469278  0.34699823  0.45858227     0.97800
C303        C  0.80558538  0.44534845  0.05079774     0.94200
Al304      Al  0.87327137  0.41815129  0.04110931     1.55600
O305        O  0.78405002  0.36769908  0.52280161    -0.77500
C306        C  0.93354295  0.38044677  0.01911430     0.98400
C307        C  0.85856338  0.45353086  0.48353941     0.93300
O308        O  0.83978336  0.42862846  0.47422830    -0.82800
O309        O  0.18680944  0.43206431  0.48303626    -0.82300
C310        C  0.14121145  0.35533559  0.08589166     0.97100
O311        O  0.13125027  0.38583937  0.07847743    -0.71400
O312        O  0.18562955  0.42765576  0.07020912    -0.75000
Al313      Al  0.14560119  0.41745371  0.04675751     1.49000
C314        C  0.21256311  0.44142484  0.05841734     0.92300
O315        O  0.23579067  0.35994134  0.52345715    -0.81200
O316        O  0.14741203  0.34361531  0.48047463    -0.74800
Al317      Al  0.20829491  0.39600587  0.50505513     1.90100
O318        O  0.19730291  0.31846928  0.51749677    -0.73900
O319        O  0.10326405  0.35265808  0.52734606    -0.73700
O320        O  0.15660254  0.33556489  0.06657962    -0.79400
O321        O  0.10284652  0.41104482  0.02557309    -0.77600
O322        O  0.16823840  0.38521722  0.02464905    -1.13700
O323        O  0.15586069  0.45553110  0.52003762    -0.72900
C324        C  0.17203152  0.45841470  0.49490839     0.97800
C325        C  0.22889129  0.32814105  0.51756178     0.94200
Al326      Al  0.15259588  0.34095859  0.52336133     1.55600
O327        O  0.22378328  0.43092101  0.03265650    -0.77500
C328        C  0.08630972  0.38241653  0.02439275     0.98400
C329        C  0.17212341  0.35086822  0.46207491     0.93300
O330        O  0.19931198  0.36639928  0.47096389    -0.82800
O331        O  0.19462731  0.35558430  0.31969636    -0.82300
C332        C  0.12303850  0.33834753  0.21474345     0.97100
O333        O  0.14250662  0.31982149  0.23126820    -0.71400
O334        O  0.19108174  0.30903980  0.27174757    -0.75000
Al335      Al  0.14358508  0.32436294  0.27487262     1.49000
C336        C  0.21724161  0.32360859  0.25933706     0.92300
O337        O  0.19682956  0.42292281  0.25436134    -0.81200
O338        O  0.13180603  0.43843445  0.27897557    -0.74800
Al339      Al  0.19244355  0.38704745  0.28552643     1.90100
O340        O  0.15374247  0.40889622  0.22470226    -0.73900
O341        O  0.08757867  0.38668474  0.28445378    -0.73700
O342        O  0.10505857  0.36279887  0.22684128    -0.79400
O343        O  0.09334913  0.32972580  0.27894831    -0.77600
O344        O  0.15267808  0.36965836  0.27217495    -1.13700
O345        O  0.14484156  0.32665992  0.31775793    -0.72900
C346        C  0.17010467  0.33862952  0.33270918     0.97800
C347        C  0.17985433  0.42738079  0.23016681     0.94200
Al348      Al  0.12188271  0.39720332  0.25511078     1.55600
O349        O  0.21999527  0.35664347  0.25980949    -0.77500
C350        C  0.07492563  0.35633519  0.28632580     0.98400
C351        C  0.14789177  0.44255976  0.30352270     0.93300
O352        O  0.16901319  0.41935212  0.31241231    -0.82800
C353        C  0.17023656  0.33476682  0.36596782    -0.06000
C354        C  0.13854978  0.33729173  0.38254513    -0.33400
C355        C  0.13840664  0.34064597  0.41422250     0.35900
C356        C  0.17030610  0.34149779  0.42963825    -0.06300
C357        C  0.20174563  0.33648026  0.41315858    -0.33300
C358        C  0.20187447  0.33307781  0.38164883     0.35800
H359        H  0.11395372  0.33890372  0.37080408     0.16100
O360        O  0.10727625  0.34617723  0.42947165    -0.60800
H361        H  0.22654004  0.33630172  0.42468390     0.16100
O362        O  0.23320742  0.32939850  0.36631982    -0.60900
H363        H  0.23660826  0.30370432  0.36378320     0.43100
H364        H  0.09811658  0.32239805  0.43383278     0.43100
C365        C  0.13376583  0.34375978  0.11755391    -0.06000
C366        C  0.10361485  0.35681882  0.13242942    -0.33400
C367        C  0.09820308  0.35230038  0.16362505     0.35900
C368        C  0.12337025  0.33458348  0.18100449    -0.06300
C369        C  0.15215640  0.31886378  0.16568962    -0.33300
C370        C  0.15728518  0.32309780  0.13416654     0.35800
H371        H  0.08460585  0.37190137  0.11996762     0.16100
O372        O  0.06859991  0.36634504  0.17704347    -0.60800
H373        H  0.17195388  0.30521254  0.17841787     0.16100
O374        O  0.18690160  0.30958115  0.12047606    -0.60900
H375        H  0.17975791  0.28656423  0.11202774     0.43100
H376        H  0.07309095  0.39190635  0.17873394     0.43100
C377        C  0.97278884  0.38021616  0.01663955    -0.06000
C378        C  0.99171802  0.41034235  0.51235170    -0.33400
C379        C  0.02843102  0.41135898  0.51348350     0.35900
C380        C  0.04745427  0.38212358  0.01991875    -0.06300
C381        C  0.02939789  0.34998418  0.01854022    -0.33300
C382        C  0.99267820  0.34882562  0.01678456     0.35800
H383        H  0.97768269  0.43476421  0.50910734     0.16100
O384        O  0.04489074  0.44295225  0.50955799    -0.60800
H385        H  0.04372165  0.32542092  0.01943746     0.16100
O386        O  0.97658934  0.31674118  0.01648525    -0.60900
H387        H  0.97569489  0.30994145  0.99477451     0.43100
H388        H  0.04447067  0.45424873  0.52990010     0.43100
C389        C  0.96415033  0.35695729  0.28925813    -0.06000
C390        C  0.98214684  0.32613754  0.28062241    -0.33400
C391        C  0.01841048  0.32402206  0.28238533     0.35900
C392        C  0.03727043  0.35303385  0.29312105    -0.06300
C393        C  0.01891638  0.38219515  0.30513819    -0.33300
C394        C  0.98256159  0.38430837  0.30328610     0.35800
H395        H  0.96848364  0.30446424  0.27021405     0.16100
O396        O  0.03518421  0.29514667  0.27025635    -0.60800
H397        H  0.03293612  0.40450533  0.31410792     0.16100
O398        O  0.96570260  0.41409856  0.31345919    -0.60900
H399        H  0.95926849  0.40926863  0.33489947     0.43100
H400        H  0.03543438  0.27769078  0.28683098     0.43100
C401        C  0.84416836  0.33616131  0.42632252    -0.06000
C402        C  0.87494404  0.33634794  0.40860186    -0.33400
C403        C  0.87338560  0.33498361  0.37684541     0.35900
C404        C  0.84064053  0.33345528  0.36247347    -0.06300
C405        C  0.81019734  0.33056522  0.38030853    -0.33300
C406        C  0.81179008  0.33130374  0.41190497     0.35800
H407        H  0.90000301  0.34003856  0.41920492     0.16100
O408        O  0.90386178  0.33753529  0.36012322    -0.60800
H409        H  0.78492503  0.32870303  0.36970751     0.16100
O410        O  0.78120005  0.32906209  0.42850320    -0.60900
H411        H  0.77803733  0.30364264  0.43242382     0.43100
H412        H  0.90717544  0.36299446  0.35667065     0.43100
C413        C  0.88458553  0.33705710  0.17616615    -0.06000
C414        C  0.85628707  0.32301059  0.16025838    -0.33400
C415        C  0.85391005  0.32747245  0.12875305     0.35900
C416        C  0.88020622  0.34591390  0.11284878    -0.06300
C417        C  0.90971706  0.35734183  0.12835037    -0.33300
C418        C  0.91224161  0.35279008  0.15959467     0.35800
H419        H  0.83466093  0.31104352  0.17249675     0.16100
O420        O  0.82459546  0.31617701  0.11420986    -0.60800
H421        H  0.93037125  0.37116021  0.11631192     0.16100
O422        O  0.94092086  0.36595951  0.17393781    -0.60900
H423        H  0.95636975  0.34538080  0.17724435     0.43100
H424        H  0.80764308  0.33591949  0.11600924     0.43100
C425        C  0.18972117  0.55981572  0.45417912    -0.06000
C426        C  0.17229882  0.55697137  0.48243999    -0.33400
C427        C  0.16549185  0.52436612  0.49545359     0.35900
C428        C  0.17696574  0.49336027  0.48070373    -0.06300
C429        C  0.19703598  0.49631955  0.45369793    -0.33300
C430        C  0.20347552  0.52913870  0.44046454     0.35800
H431        H  0.16172628  0.58015858  0.49372047     0.16100
O432        O  0.14770368  0.52336389  0.52272730    -0.60800
H433        H  0.20749869  0.47307348  0.44247666     0.16100
O434        O  0.22232781  0.53074546  0.41375571    -0.60900
H435        H  0.20566286  0.52446761  0.39765710     0.43100
H436        H  0.12268854  0.52210675  0.51748871     0.43100
C437        C  0.14169489  0.54133033  0.35123680    -0.06000
C438        C  0.14167334  0.50970470  0.36755655    -0.33400
C439        C  0.14310605  0.47720072  0.35241839     0.35900
C440        C  0.14362634  0.47597360  0.32050098    -0.06300
C441        C  0.14140223  0.50752688  0.30427650    -0.33300
C442        C  0.14076279  0.53998290  0.31935123     0.35800
H443        H  0.14204670  0.51019171  0.39211627     0.16100
O444        O  0.14444492  0.44687776  0.36898659    -0.60800
H445        H  0.14147689  0.50708454  0.27970695     0.16100
O446        O  0.13981417  0.57022861  0.30265031    -0.60900
H447        H  0.11490652  0.57770092  0.30305503     0.43100
H448        H  0.11967396  0.44055133  0.37307214     0.43100
C449        C  0.12420070  0.67418840  0.05110158    -0.06000
C450        C  0.09250918  0.66887127  0.03644627    -0.33400
C451        C  0.09035058  0.67804227  0.50608792     0.35900
C452        C  0.11995749  0.68910460  0.48920517    -0.06300
C453        C  0.15054618  0.69786434  0.50457277    -0.33300
C454        C  0.15253438  0.68908293  0.03503685     0.35800
H455        H  0.07029055  0.65815575  0.04880375     0.16100
O456        O  0.05912728  0.67213780  0.49207400    -0.60800
H457        H  0.17360752  0.70616641  0.49196683     0.16100
O458        O  0.18397561  0.69401836  0.04885085    -0.60900
H459        H  0.18321591  0.71855633  0.05647256     0.43100
H460        H  0.05679157  0.64626374  0.49082287     0.43100
C461        C  0.15125163  0.67662074  0.23781380    -0.06000
C462        C  0.18309610  0.68499630  0.25153030    -0.33400
C463        C  0.18528452  0.68875588  0.28289771     0.35900
C464        C  0.15537915  0.68408004  0.30132926    -0.06300
C465        C  0.12278945  0.67922414  0.28757002    -0.33300
C466        C  0.12055583  0.67562287  0.25590546     0.35800
H467        H  0.20688083  0.68712646  0.23793650     0.16100
O468        O  0.21716412  0.69540740  0.29541215    -0.60800
H469        H  0.09941342  0.67584565  0.30147723     0.16100
O470        O  0.08893196  0.66806325  0.24332968    -0.60900
H471        H  0.07865436  0.69121833  0.23818101     0.43100
H472        H  0.21734013  0.72110068  0.29924496     0.43100
C473        C  0.16634609  0.52408606  0.18634809    -0.06000
C474        C  0.15949912  0.49279596  0.17062720    -0.33400
C475        C  0.16859978  0.46038861  0.18279525     0.35900
C476        C  0.18430123  0.45880729  0.21151867    -0.06300
C477        C  0.19348612  0.48997524  0.22617850    -0.33300
C478        C  0.18454925  0.52240883  0.21398014     0.35800
H479        H  0.14684003  0.49334203  0.14885720     0.16100
O480        O  0.15917612  0.43037602  0.16762904    -0.60800
H481        H  0.20485697  0.48932284  0.24850193     0.16100
O482        O  0.19233808  0.55216766  0.23012757    -0.60900
H483        H  0.21710419  0.55722410  0.22501217     0.43100
H484        H  0.18141469  0.41836532  0.16193317     0.43100
C485        C  0.21969399  0.54425260  0.09529814    -0.06000
C486        C  0.22278234  0.51521003  0.11467856    -0.33400
C487        C  0.22485653  0.48084920  0.10302651     0.35900
C488        C  0.22533741  0.47505372  0.07150840    -0.06300
C489        C  0.22823988  0.50440679  0.05229714    -0.33300
C490        C  0.22466777  0.53878666  0.06392906     0.35800
H491        H  0.21991664  0.51880325  0.13895389     0.16100
O492        O  0.22321610  0.45304744  0.12255637    -0.60800
H493        H  0.22942619  0.50068550  0.02794375     0.16100
O494        O  0.22499899  0.56667301  0.04440986    -0.60900
H495        H  0.20007103  0.57220927  0.04076019     0.43100
H496        H  0.24779965  0.44873764  0.12856596     0.43100
C497        C  0.86536048  0.54374616  0.42728123    -0.06000
C498        C  0.86711337  0.51030963  0.41383255    -0.33400
C499        C  0.86657647  0.48023061  0.43191020     0.35900
C500        C  0.86541863  0.48366718  0.46373361    -0.06300
C501        C  0.86725866  0.51713396  0.47698905    -0.33300
C502        C  0.86695135  0.54705901  0.45903438     0.35800
H503        H  0.86624046  0.50742949  0.38939928     0.16100
O504        O  0.86657458  0.44770829  0.41835715    -0.60800
H505        H  0.86654666  0.52027341  0.50143542     0.16100
O506        O  0.86598744  0.57944968  0.47281565    -0.60900
H507        H  0.89076399  0.58533913  0.47657975     0.43100
H508        H  0.84215933  0.44391807  0.41195347     0.43100
C509        C  0.96080056  0.66209580  0.37989623    -0.06000
C510        C  0.98090177  0.63463513  0.36716089    -0.33400
C511        C  0.01701269  0.63463534  0.36898588     0.35900
C512        C  0.03374162  0.66224000  0.38413649    -0.06300
C513        C  0.01390823  0.69066051  0.39564133    -0.33300
C514        C  0.97747593  0.69080585  0.39343445     0.35800
H515        H  0.96853745  0.61274227  0.35585591     0.16100
O516        O  0.03557029  0.60699017  0.35656497    -0.60800
H517        H  0.02647434  0.71201216  0.40749741     0.16100
O518        O  0.95843371  0.71784502  0.40621544    -0.60900
H519        H  0.95823461  0.73644171  0.39059057     0.43100
H520        H  0.04420569  0.61546044  0.33658350     0.43100
C521        C  0.81216378  0.54821447  0.32741670    -0.06000
C522        C  0.83181379  0.54396961  0.30031224    -0.33400
C523        C  0.84382007  0.51101758  0.29076697     0.35900
C524        C  0.83530943  0.48096578  0.30780793    -0.06300
C525        C  0.81338286  0.48483911  0.33361767    -0.33300
C526        C  0.80191456  0.51803799  0.34350154     0.35800
H527        H  0.84003074  0.56665101  0.28734177     0.16100
O528        O  0.86355222  0.50865934  0.26453257    -0.60800
H529        H  0.80529973  0.46205491  0.34649745     0.16100
O530        O  0.78150838  0.52067539  0.36932091    -0.60900
H531        H  0.79773817  0.51750166  0.38637162     0.43100
H532        H  0.88795218  0.51298181  0.27074195     0.43100
C533        C  0.81228990  0.45977146  0.20889069    -0.06000
C534        C  0.79777753  0.49002511  0.22267470    -0.33400
C535        C  0.80303413  0.52354998  0.20994796     0.35900
C536        C  0.82329759  0.52741652  0.18294941    -0.06300
C537        C  0.83595556  0.49685051  0.16847154    -0.33300
C538        C  0.83054553  0.46359052  0.18093914     0.35800
H539        H  0.78422034  0.48803512  0.24437137     0.16100
O540        O  0.78827048  0.55219869  0.22423265    -0.60800
H541        H  0.85041708  0.49851106  0.14718581     0.16100
O542        O  0.84412089  0.43477537  0.16588179    -0.60900
H543        H  0.86982987  0.43610818  0.16827299     0.43100
H544        H  0.80655008  0.56116036  0.23788605     0.43100
C545        C  0.95607998  0.63073584  0.13733104    -0.06000
C546        C  0.97440944  0.59847800  0.13761574    -0.33400
C547        C  0.01126788  0.59713281  0.13947883     0.35900
C548        C  0.03095010  0.62843234  0.14141322    -0.06300
C549        C  0.01240808  0.66047997  0.14213478    -0.33300
C550        C  0.97578032  0.66185103  0.14021079     0.35800
H551        H  0.96021857  0.57405607  0.13565392     0.16100
O552        O  0.02761763  0.56500929  0.13910024    -0.60800
H553        H  0.02641749  0.68505461  0.14362268     0.16100
O554        O  0.95970856  0.69410893  0.14043021    -0.60900
H555        H  0.95619196  0.70016290  0.16218412     0.43100
H556        H  0.03206486  0.55955774  0.11734516     0.43100
C557        C  0.84083990  0.68163358  0.22506129    -0.06000
C558        C  0.87564030  0.68229380  0.23489192    -0.33400
C559        C  0.88311639  0.68467513  0.26572361     0.35900
C560        C  0.85570593  0.68757486  0.28719632    -0.06300
C561        C  0.82113118  0.69042519  0.27732749    -0.33300
C562        C  0.81353165  0.68723532  0.24648250     0.35800
H563        H  0.89717300  0.67865161  0.21885794     0.16100
O564        O  0.91722183  0.68306406  0.27479490    -0.60800
H565        H  0.79974434  0.69236161  0.29373734     0.16100
O566        O  0.77930507  0.68794764  0.23778464    -0.60900
H567        H  0.77449143  0.71283270  0.23275201     0.43100
H568        H  0.92359653  0.65778620  0.27409091     0.43100
C569        C  0.85413629  0.66432536  0.03751136    -0.06000
C570        C  0.88159536  0.65890726  0.01656413    -0.33400
C571        C  0.87832987  0.66612962  0.48568212     0.35900
C572        C  0.84399008  0.67125676  0.47507243    -0.06300
C573        C  0.81606895  0.67270993  0.49606983    -0.33300
C574        C  0.82137237  0.67593090  0.02715422     0.35800
H575        H  0.90687575  0.65001852  0.02423333     0.16100
O576        O  0.90620078  0.66345276  0.46577407    -0.60800
H577        H  0.78956441  0.67640184  0.48838204     0.16100
O578        O  0.79403911  0.68183104  0.04715122    -0.60900
H579        H  0.78228733  0.65880373  0.04940916     0.43100
H580        H  0.91584333  0.68756551  0.46435756     0.43100
C581        C  0.78764279  0.47658131  0.06391707    -0.06000
C582        C  0.78192557  0.50541593  0.04483920    -0.33400
C583        C  0.77599232  0.53896938  0.05700752     0.35900
C584        C  0.77508576  0.54390306  0.08864120    -0.06300
C585        C  0.77484248  0.51420901  0.10746518    -0.33300
C586        C  0.78193483  0.48072607  0.09531517     0.35800
H587        H  0.78590841  0.50271763  0.02054055     0.16100
O588        O  0.77583317  0.56730404  0.03795969    -0.60800
H589        H  0.77379382  0.51742834  0.13187812     0.16100
O590        O  0.78505574  0.45266267  0.11438971    -0.60900
H591        H  0.81044660  0.45037806  0.11795990     0.43100
H592        H  0.75098226  0.57469642  0.03701076     0.43100
C593        C  0.75744811  0.29285757  0.26706429    -0.06000
C594        C  0.76496580  0.25805292  0.25869254    -0.33400
C595        C  0.74318494  0.23060157  0.26759118     0.35900
C596        C  0.71271738  0.23740879  0.28542222    -0.06300
C597        C  0.70417767  0.27253065  0.29253391    -0.33300
C598        C  0.72628757  0.30014145  0.28352852     0.35800
H599        H  0.78889094  0.25183151  0.24619021     0.16100
O600        O  0.75252301  0.19710654  0.25901761    -0.60800
H601        H  0.68058630  0.27860838  0.30551593     0.16100
O602        O  0.71854798  0.33368819  0.29295983    -0.60900
H603        H  0.70261160  0.34311768  0.27746843     0.43100
H604        H  0.74232166  0.19365058  0.23872611     0.43100
C605        C  0.76190833  0.30741596  0.03012322    -0.06000
C606        C  0.72676724  0.31642758  0.02495012    -0.33400
C607        C  0.70005275  0.29127652  0.02786216     0.35900
C608        C  0.70835580  0.25644452  0.03587925    -0.06300
C609        C  0.74344001  0.24797201  0.04165699    -0.33300
C610        C  0.76983770  0.27286544  0.03906126     0.35800
H611        H  0.72007018  0.34275091  0.01784171     0.16100
O612        O  0.66630133  0.30075099  0.02172630    -0.60800
H613        H  0.75075201  0.22169168  0.04844431     0.16100
O614        O  0.80349728  0.26277220  0.04503903    -0.60900
H615        H  0.80734175  0.26998084  0.06635383     0.43100
H616        H  0.65666115  0.31039480  0.04107349     0.43100
C617        C  0.66025954  0.13461828  0.44731402    -0.06000
C618        C  0.64665854  0.10356636  0.43505334    -0.33400
C619        C  0.65055938  0.09580191  0.40423756     0.35900
C620        C  0.66759597  0.11972389  0.38475590    -0.06300
C621        C  0.68425138  0.14905387  0.39747241    -0.33300
C622        C  0.68074707  0.15654471  0.42863426     0.35800
H623        H  0.63174299  0.08576636  0.44928745     0.16100
O624        O  0.63547576  0.06588160  0.39310428    -0.60800
H625        H  0.69758112  0.16772889  0.38294527     0.16100
O626        O  0.69533553  0.18652547  0.44008136    -0.60900
H627        H  0.67715984  0.20498111  0.43800361     0.43100
H628        H  0.65508915  0.04903955  0.38992176     0.43100
C629        C  0.67318323  0.16512032  0.13472290    -0.06000
C630        C  0.67642838  0.19533784  0.15278306    -0.33400
C631        C  0.67530767  0.19334651  0.18434270     0.35900
C632        C  0.67082122  0.16062182  0.19867651    -0.06300
C633        C  0.67053649  0.12998508  0.18074391    -0.33300
C634        C  0.67138378  0.13206893  0.14892359     0.35800
H635        H  0.67819681  0.22098821  0.14237526     0.16100
O636        O  0.67686752  0.22388918  0.20091151    -0.60800
H637        H  0.66730419  0.10457844  0.19131321     0.16100
O638        O  0.66793944  0.10193103  0.13209188    -0.60900
H639        H  0.64243177  0.09930791  0.12911750     0.43100
H640        H  0.70211938  0.22798375  0.20407289     0.43100
C641        C  0.70411530  0.75600475  0.33141750    -0.06000
C642        C  0.69859000  0.71957222  0.33195613    -0.33400
C643        C  0.72160076  0.69721270  0.34725076     0.35900
C644        C  0.75053720  0.71130076  0.36256287    -0.06300
C645        C  0.75503665  0.74784562  0.36288650    -0.33300
C646        C  0.73247500  0.76999673  0.34747840     0.35800
H647        H  0.67674366  0.70832631  0.32006486     0.16100
O648        O  0.71605156  0.66169568  0.34626278    -0.60800
H649        H  0.77669500  0.75959334  0.37468416     0.16100
O650        O  0.73790460  0.80552542  0.34914918    -0.60900
H651        H  0.75623271  0.81048708  0.33352096     0.43100
H652        H  0.70046207  0.65676028  0.36390105     0.43100
C653        C  0.62734393  0.95551654  0.29747036    -0.06000
C654        C  0.65976218  0.97270383  0.29616062    -0.33400
C655        C  0.66199946  0.00871925  0.29052383     0.35900
C656        C  0.63134658  0.02888673  0.28639889    -0.06300
C657        C  0.59905633  0.01134490  0.28573649    -0.33300
C658        C  0.59688061  0.97507250  0.29110547     0.35800
H659        H  0.68372474  0.95835250  0.30025456     0.16100
O660        O  0.69434783  0.02407981  0.29078708    -0.60800
H661        H  0.57511981  0.02597222  0.28224181     0.16100
O662        O  0.56476021  0.95925260  0.29045603    -0.60900
H663        H  0.55406793  0.96367859  0.31076863     0.43100
H664        H  0.70213520  0.02473047  0.26923231     0.43100
C665        C  0.75427392  0.71600338  0.11169180    -0.06000
C666        C  0.76793444  0.74705349  0.09922250    -0.33400
C667        C  0.74657547  0.77132013  0.08439623     0.35900
C668        C  0.71023980  0.76539752  0.08195813    -0.06300
C669        C  0.69650759  0.73426915  0.09441159    -0.33300
C670        C  0.71811276  0.70966524  0.10888072     0.35800
H671        H  0.79563750  0.75251141  0.10058803     0.16100
O672        O  0.76165584  0.80117739  0.07301923    -0.60800
H673        H  0.66876641  0.72899284  0.09318821     0.16100
O674        O  0.70328624  0.68010399  0.12104259    -0.60900
H675        H  0.70272568  0.66289146  0.10409509     0.43100
H676        H  0.76953953  0.79485071  0.05215740     0.43100
C677        C  0.64255744  0.97362535  0.05311948    -0.06000
C678        C  0.61101265  0.98913565  0.04392212    -0.33400
C679        C  0.60797721  0.02537037  0.04016179     0.35900
C680        C  0.63673019  0.04724489  0.04575234    -0.06300
C681        C  0.66856213  0.03179791  0.05437982    -0.33300
C682        C  0.67163842  0.99534009  0.05801398     0.35800
H683        H  0.58827363  0.97309256  0.03970022     0.16100
O684        O  0.57671231  0.03898051  0.03085082    -0.60800
H685        H  0.69110065  0.04807753  0.05870092     0.16100
O686        O  0.70268444  0.98153977  0.06759988    -0.60900
H687        H  0.71609822  0.97571111  0.04873204     0.43100
H688        H  0.57891399  0.04035290  0.00840646     0.43100
C689        C  0.65537132  0.85948110  0.40432743    -0.06000
C690        C  0.67489063  0.83130478  0.41597124    -0.33400
C691        C  0.67969241  0.82781425  0.44732415     0.35900
C692        C  0.66623723  0.85348537  0.46745744    -0.06300
C693        C  0.64788076  0.88225358  0.45578701    -0.33300
C694        C  0.64197104  0.88512462  0.42462219     0.35800
H695        H  0.68524251  0.81112898  0.40083748     0.16100
O696        O  0.69781966  0.79945943  0.45803651    -0.60800
H697        H  0.63673915  0.90185771  0.47108883     0.16100
O698        O  0.62251147  0.91279164  0.41434601    -0.60900
H699        H  0.63964522  0.93160391  0.40999140     0.43100
H700        H  0.68022867  0.78055611  0.46026800     0.43100
C701        C  0.66953341  0.84694477  0.21581453    -0.06000
C702        C  0.66623655  0.88249093  0.20768246    -0.33400
C703        C  0.66763356  0.89271861  0.17732652     0.35900
C704        C  0.67346724  0.86749984  0.15447260    -0.06300
C705        C  0.67892422  0.83224987  0.16254201    -0.33300
C706        C  0.67634901  0.82176242  0.19294432     0.35800
H707        H  0.66069574  0.90234848  0.22482762     0.16100
O708        O  0.66171805  0.92719061  0.17012921    -0.60800
H709        H  0.68285710  0.81241524  0.14506445     0.16100
O710        O  0.68023144  0.78695388  0.19997089    -0.60900
H711        H  0.65692114  0.77636859  0.19670668     0.43100
H712        H  0.68502932  0.93844905  0.17061891     0.43100
C713        C  0.29873494  0.25793815  0.46711606    -0.06000
C714        C  0.31006093  0.29180760  0.47540162    -0.33400
C715        C  0.28894290  0.31437711  0.49360701     0.35900
C716        C  0.25594507  0.30312837  0.50470690    -0.06300
C717        C  0.24611380  0.26873111  0.99858827    -0.33300
C718        C  0.26612560  0.24653766  0.47886760     0.35800
H719        H  0.33517673  0.30122273  0.46724838     0.16100
O720        O  0.30050973  0.34767748  0.49958484    -0.60800
H721        H  0.22136189  0.25875547  0.00709426     0.16100
O722        O  0.25643498  0.21254409  0.97591554    -0.60900
H723        H  0.24002608  0.21376787  0.95879489     0.43100
H724        H  0.29373908  0.36178787  0.48177203     0.43100
C725        C  0.48163343  0.18561382  0.38506199    -0.06000
C726        C  0.51257614  0.17683202  0.40013727    -0.33400
C727        C  0.54551720  0.18307479  0.38699571     0.35900
C728        C  0.54843037  0.19707033  0.35754000    -0.06300
C729        C  0.51783082  0.20853133  0.34338044    -0.33300
C730        C  0.48470065  0.20328082  0.35701495     0.35800
H731        H  0.51144870  0.16536362  0.42254824     0.16100
O732        O  0.57495840  0.17456753  0.40281726    -0.60800
H733        H  0.51935364  0.21941221  0.32076648     0.16100
O734        O  0.45557213  0.21459178  0.34221353    -0.60900
H735        H  0.45185063  0.23917542  0.34913895     0.43100
H736        H  0.57592194  0.14848908  0.40307749     0.43100
C737        C  0.46652551  0.24118534  0.47814699    -0.06000
C738        C  0.47376303  0.23733212  0.01027846    -0.33400
C739        C  0.50759309  0.23454557  0.02168311     0.35900
C740        C  0.53634850  0.22917923  0.00163474    -0.06300
C741        C  0.53140191  0.23350767  0.97044694    -0.33300
C742        C  0.49599435  0.24338303  0.45854499     0.35800
H743        H  0.45158997  0.23617848  0.02588704     0.16100
O744        O  0.51161278  0.23223831  0.05243089    -0.60800
H745        H  0.55326341  0.23035165  0.95468199     0.16100
O746        O  0.49198327  0.24585490  0.42783809    -0.60900
H747        H  0.49771267  0.27050297  0.42281973     0.43100
H748        H  0.51294831  0.25686843  0.05968719     0.43100
C749        C  0.24336439  0.30083610  0.24350243    -0.06000
C750        C  0.23222486  0.26778797  0.23359575    -0.33400
C751        C  0.25506103  0.24443075  0.21905478     0.35900
C752        C  0.29037765  0.25370078  0.21367023    -0.06300
C753        C  0.30167550  0.28708718  0.22317997    -0.33300
C754        C  0.27840637  0.31065911  0.23793196     0.35800
H755        H  0.20533287  0.25971153  0.23714663     0.16100
O756        O  0.24229871  0.21230665  0.21057681    -0.60800
H757        H  0.32861308  0.29482735  0.21943331     0.16100
O758        O  0.29033373  0.34282243  0.24711768    -0.60900
H759        H  0.29720314  0.33959742  0.26849719     0.43100
H760        H  0.24547999  0.19699166  0.22843679     0.43100
C761        C  0.52776649  0.15802893  0.09914062    -0.06000
C762        C  0.53128163  0.15362587  0.13053512    -0.33400
C763        C  0.50165597  0.15183488  0.14978117     0.35900
C764        C  0.46795651  0.15695244  0.13800963    -0.06300
C765        C  0.46449426  0.15984174  0.10646853    -0.33300
C766        C  0.49386205  0.15926396  0.08706427     0.35800
H767        H  0.55707173  0.15163031  0.14017359     0.16100
O768        O  0.50613547  0.14681058  0.18018394    -0.60800
H769        H  0.43883626  0.16295033  0.09676070     0.16100
O770        O  0.48907875  0.16210214  0.05643207    -0.60900
H771        H  0.48609137  0.13768071  0.04906126     0.43100
H772        H  0.50497916  0.12101258  0.18302219     0.43100
C773        C  0.32978055  0.14773158  0.28385758    -0.06000
C774        C  0.34162846  0.12282252  0.30466233    -0.33400
C775        C  0.34304373  0.13072343  0.33573486     0.35900
C776        C  0.33360872  0.16451135  0.34658920    -0.06300
C777        C  0.32104876  0.18924060  0.32594920    -0.33300
C778        C  0.31869860  0.18098593  0.29493142     0.35800
H779        H  0.35086379  0.09740523  0.29668504     0.16100
O780        O  0.35638960  0.10606893  0.35496519    -0.60800
H781        H  0.31364008  0.21528373  0.33379552     0.16100
O782        O  0.30737976  0.20638142  0.27544992    -0.60900
H783        H  0.32877963  0.21909261  0.26893094     0.43100
H784        H  0.33636622  0.09074760  0.36039678     0.43100
C785        C  0.33402160  0.17130870  0.09631379    -0.06000
C786        C  0.33617049  0.13711917  0.08403177    -0.33400
C787        C  0.34181701  0.13181933  0.05295471     0.35900
C788        C  0.34469132  0.16084144  0.03375229    -0.06300
C789        C  0.34020115  0.19486065  0.04549992    -0.33300
C790        C  0.33547022  0.20030874  0.07666703     0.35800
H791        H  0.33524446  0.11442160  0.09871577     0.16100
O792        O  0.34525100  0.09831768  0.04168592    -0.60800
H793        H  0.34181775  0.21733774  0.03057384     0.16100
O794        O  0.33248600  0.23397391  0.08766210    -0.60900
H795        H  0.35679988  0.24280969  0.08861796     0.43100
H796        H  0.32225407  0.09278650  0.03274818     0.43100
C797        C  0.45667463  0.20037118  0.24413232    -0.06000
C798        C  0.48646833  0.20855461  0.22671488    -0.33400
C799        C  0.51934419  0.19556202  0.23460382     0.35900
C800        C  0.52275048  0.17341341  0.26008922    -0.06300
C801        C  0.49337083  0.16774258  0.27879271    -0.33300
C802        C  0.46077135  0.18153729  0.27140087     0.35800
H803        H  0.48399181  0.22251116  0.20551924     0.16100
O804        O  0.54754214  0.20311759  0.21616031    -0.60800
H805        H  0.49552539  0.15254534  0.29936698     0.16100
O806        O  0.43251154  0.17486587  0.29015333    -0.60900
H807        H  0.42795585  0.14933273  0.28818152     0.43100
H808        H  0.55561375  0.22656083  0.22295216     0.43100
C809        C  0.29935719  0.77201850  0.40863531    -0.06000
C810        C  0.30238661  0.73798393  0.42052931    -0.33400
C811        C  0.27551998  0.71322856  0.41685463     0.35900
C812        C  0.24498072  0.72244052  0.40119407    -0.06300
C813        C  0.24300671  0.75595390  0.38806963    -0.33300
C814        C  0.26971397  0.78049611  0.39164499     0.35800
H815        H  0.32493098  0.73103669  0.43379439     0.16100
O816        O  0.27857762  0.68092081  0.43010090    -0.60800
H817        H  0.22042661  0.76341698  0.37504540     0.16100
O818        O  0.26688536  0.81261078  0.37793296    -0.60900
H819        H  0.25136030  0.82680781  0.39156152     0.43100
H820        H  0.29203555  0.66640441  0.41521882     0.43100
C821        C  0.47770281  0.86786155  0.47532245    -0.06000
C822        C  0.47219870  0.86912704  0.00709644    -0.33400
C823        C  0.50103926  0.86957730  0.02621309     0.35900
C824        C  0.53512713  0.86716396  0.01371564    -0.06300
C825        C  0.54079862  0.86824753  0.48158389    -0.33300
C826        C  0.51183787  0.86851595  0.46263847     0.35800
H827        H  0.44608182  0.86904771  0.01705196     0.16100
O828        O  0.49548971  0.86983903  0.05699065    -0.60800
H829        H  0.56680246  0.86690916  0.47143654     0.16100
O830        O  0.51723895  0.86810826  0.43180097    -0.60900
H831        H  0.52421123  0.84352755  0.42665076     0.43100
H832        H  0.49367625  0.89498291  0.06272457     0.43100
C833        C  0.37663201  0.98082537  0.42853376    -0.06000
C834        C  0.34507097  0.99992062  0.42985454    -0.33400
C835        C  0.34466437  0.03668909  0.43290162     0.35900
C836        C  0.37626381  0.05564537  0.43527280    -0.06300
C837        C  0.40786474  0.03657836  0.43397533    -0.33300
C838        C  0.40829332  0.99980389  0.43049013     0.35800
H839        H  0.32035903  0.98636622  0.42804046     0.16100
O840        O  0.31298091  0.05370326  0.43347398    -0.60800
H841        H  0.43255116  0.05018444  0.43577494     0.16100
O842        O  0.43997010  0.98275751  0.42950710    -0.60900
H843        H  0.44822528  0.98441623  0.40811036     0.43100
H844        H  0.30847491  0.05970041  0.41204219     0.43100
C845        C  0.46681289  0.79371346  0.37592440    -0.06000
C846        C  0.49441625  0.78447237  0.39501628    -0.33400
C847        C  0.52793706  0.77806439  0.38303522     0.35900
C848        C  0.53373793  0.77924800  0.35151250    -0.06300
C849        C  0.50489361  0.78240844  0.33236063    -0.33300
C850        C  0.47170464  0.79075632  0.34437316     0.35800
H851        H  0.49106326  0.78633669  0.41942690     0.16100
O852        O  0.55551500  0.77545788  0.40236947    -0.60800
H853        H  0.50886535  0.78314925  0.30801122     0.16100
O854        O  0.44476000  0.79767396  0.32515210    -0.60900
H855        H  0.44618728  0.82307829  0.32087276     0.43100
H856        H  0.56318015  0.75050859  0.40110013     0.43100
C857        C  0.23596591  0.71676952  0.15427508    -0.06000
C858        C  0.22463672  0.75076646  0.16243365    -0.33400
C859        C  0.24814193  0.77634662  0.17198270     0.35900
C860        C  0.28429184  0.76877264  0.17311359    -0.06300
C861        C  0.29571653  0.73460925  0.16563897    -0.33300
C862        C  0.27197850  0.70875207  0.15635510     0.35800
H863        H  0.19714809  0.75768047  0.16185259     0.16100
O864        O  0.23535900  0.80900750  0.17959943    -0.60800
H865        H  0.32332451  0.72816709  0.16597893     0.16100
O866        O  0.28435262  0.67567939  0.14981258    -0.60900
H867        H  0.29009293  0.67589910  0.12781136     0.43100
H868        H  0.23007136  0.80791679  0.20167142     0.43100
C869        C  0.45265991  0.81943220  0.23323571    -0.06000
C870        C  0.45841194  0.84431206  0.25645140    -0.33400
C871        C  0.49151712  0.85028610  0.26803486     0.35900
C872        C  0.52034410  0.83008024  0.25783946    -0.06300
C873        C  0.51470900  0.80386330  0.23567648    -0.33300
C874        C  0.48127703  0.79865634  0.22321607     0.35800
H875        H  0.43734179  0.86110564  0.26476108     0.16100
O876        O  0.49555043  0.87731760  0.28839086    -0.60800
H877        H  0.53618571  0.78717096  0.22810306     0.16100
O878        O  0.47686562  0.77314219  0.20157178    -0.60900
H879        H  0.48783916  0.78245000  0.18276271     0.43100
H880        H  0.48829385  0.86774918  0.30833802     0.43100
C881        C  0.36043534  0.97656948  0.16041968    -0.06000
C882        C  0.32808020  0.99418843  0.16330994    -0.33400
C883        C  0.32652669  0.03042211  0.16819934     0.35900
C884        C  0.35769385  0.04963714  0.17052274    -0.06300
C885        C  0.38977772  0.03261826  0.16411348    -0.33300
C886        C  0.39132156  0.99649185  0.15891338     0.35800
H887        H  0.30382366  0.97961755  0.16370208     0.16100
O888        O  0.29450784  0.04616428  0.17262407    -0.60800
H889        H  0.41413846  0.04699321  0.16458103     0.16100
O890        O  0.42341529  0.98080745  0.15472311    -0.60900
H891        H  0.42660241  0.97861970  0.13241499     0.43100
H892        H  0.28865815  0.05639318  0.15269902     0.43100
C893        C  0.33015568  0.89465308  0.26565921    -0.06000
C894        C  0.34675557  0.92220204  0.28102562    -0.33400
C895        C  0.35154497  0.92092094  0.31227817     0.35900
C896        C  0.33942491  0.89191385  0.32891531    -0.06300
C897        C  0.31943254  0.86623762  0.31430537    -0.33300
C898        C  0.31495162  0.86729752  0.28275267     0.35800
H899        H  0.35820368  0.94377741  0.26845584     0.16100
O900        O  0.36990424  0.94724183  0.32606320    -0.60800
H901        H  0.30959916  0.84394773  0.32693875     0.16100
O902        O  0.29815706  0.84011956  0.26870921    -0.60900
H903        H  0.31661552  0.82231204  0.26427194     0.43100
H904        H  0.35210531  0.96137294  0.33745442     0.43100
C905        C  0.32961191  0.85065631  0.07989184    -0.06000
C906        C  0.32837650  0.81957916  0.06296050    -0.33400
C907        C  0.32897845  0.82035680  0.03137377     0.35900
C908        C  0.33107769  0.85276719  0.01593348    -0.06300
C909        C  0.32960501  0.88405780  0.03280632    -0.33300
C910        C  0.32899025  0.88322058  0.06461208     0.35800
H911        H  0.32801675  0.79437245  0.07423017     0.16100
O912        O  0.32813573  0.78907918  0.01577616    -0.60800
H913        H  0.33118433  0.90915200  0.02143896     0.16100
O914        O  0.32971942  0.91434396  0.08040096    -0.60900
H915        H  0.35484823  0.92023623  0.08202029     0.43100
H916        H  0.35199868  0.77900440  0.01732787     0.43100
C917        C  0.54341944  0.81552199  0.11655368    -0.06000
C918        C  0.51420645  0.80606801  0.09960391    -0.33400
C919        C  0.48042115  0.81642428  0.10894733     0.35900
C920        C  0.47548772  0.83760302  0.13519498    -0.06300
C921        C  0.50441818  0.84429196  0.15340413    -0.33300
C922        C  0.53788122  0.83271173  0.14474590     0.35800
H923        H  0.51765824  0.79289684  0.07790929     0.16100
O924        O  0.45272840  0.80713877  0.09133352    -0.60800
H925        H  0.50117873  0.85829056  0.17473612     0.16100
O926        O  0.56534792  0.83940856  0.16354650    -0.60900
H927        H  0.56919191  0.86511554  0.16255242     0.43100
H928        H  0.44574299  0.78351650  0.09850909     0.43100
O929        O  0.41383054  0.83807500  0.63434696    -0.82300
C930        C  0.33511894  0.89193066  0.73189986     0.97100
O931        O  0.36128352  0.90725893  0.72017468    -0.71400
O932        O  0.40206922  0.85350773  0.72146483    -0.75000
Al933      Al  0.39445690  0.88710233  0.69187721     1.49000
C934        C  0.41986396  0.82655452  0.71545484     0.92300
O935        O  0.34460697  0.79173622  0.68088854    -0.78000
O936        O  0.32310484  0.87301122  0.62922416    -0.74800
Al937      Al  0.37885618  0.81798454  0.65899310     1.90100
O938        O  0.30098775  0.82721574  0.67154059    -0.73900
O939        O  0.33034408  0.92255493  0.67011278    -0.73700
O940        O  0.31578543  0.87313997  0.71539057    -0.79400
O941        O  0.38734513  0.92340547  0.66346011    -0.77600
O942        O  0.36468975  0.85914332  0.67390681    -1.13700
O943        O  0.43559021  0.87232599  0.66875171    -0.72900
C944        C  0.43977337  0.85291913  0.64558239     0.97800
C945        C  0.31239885  0.79678370  0.67672899     0.94200
Al946      Al  0.32059006  0.87289170  0.67181341     1.55600
O947        O  0.41332592  0.80881146  0.69154105    -0.77500
C948        C  0.35811134  0.93906919  0.66323698     0.98400
C949        C  0.33331992  0.84770298  0.61259618     0.93300
O950        O  0.34939215  0.82143995  0.62365731    -0.82800
O951        O  0.35486145  0.82639785  0.97226221    -0.82300
C952        C  0.35105838  0.88670891  0.86008429     0.97100
O953        O  0.32966360  0.87631219  0.88012953    -0.71400
O954        O  0.31321664  0.83159683  0.92274652    -0.75000
Al955      Al  0.33502490  0.87708836  0.92299022     1.49000
C956        C  0.32426505  0.80080785  0.91664499     0.92300
O957        O  0.42578655  0.80444771  0.91548537    -0.81200
O958        O  0.44734973  0.87383740  0.92891105    -0.74800
Al959      Al  0.38851460  0.82069821  0.94097747     1.90100
O960        O  0.42447929  0.83985331  0.87700714    -0.73900
O961        O  0.40454873  0.92598566  0.91806211    -0.73700
O962        O  0.38253824  0.89284080  0.86639424    -0.79400
O963        O  0.34769935  0.92610189  0.92298681    -0.77600
O964        O  0.37842755  0.85994320  0.92087059    -1.13700
O965        O  0.33517514  0.87971408  0.96665529    -0.72900
C966        C  0.34023377  0.85326610  0.98321216     0.97800
C967        C  0.43636604  0.81272890  0.88942724     0.94200
Al968      Al  0.41178662  0.88132744  0.89937169     1.55600
O969        O  0.35656599  0.79342055  0.91798547    -0.77500
C970        C  0.37639728  0.94246105  0.92309131     0.98400
C971        C  0.44647401  0.86243694  0.95586010     0.93300
O972        O  0.42066639  0.84494021  0.96574215    -0.82800
O973        O  0.34611373  0.20489376  0.64233298    -0.82300
C974        C  0.33216199  0.14238805  0.75114515     0.97100
O975        O  0.31259462  0.15709461  0.73225042    -0.71400
O976        O  0.30070557  0.20134551  0.68883025    -0.75000
Al977      Al  0.31883233  0.15435564  0.68940362     1.49000
C978        C  0.31270979  0.22901269  0.70071657     0.92300
O979        O  0.41487045  0.21527145  0.70615612    -0.81200
O980        O  0.43244629  0.14929852  0.68530344    -0.74800
Al981      Al  0.37774699  0.20683849  0.67646335     1.90100
O982        O  0.40038278  0.17562776  0.73900961    -0.73900
O983        O  0.38439915  0.10128410  0.68593249    -0.73700
O984        O  0.35803750  0.12410428  0.74189361    -0.79400
O985        O  0.32728161  0.10403606  0.68886567    -0.77600
O986        O  0.36300949  0.16664483  0.69215235    -1.13700
O987        O  0.32345547  0.15202722  0.64699499    -0.72900
C988        C  0.33434104  0.17683557  0.63054198     0.97800
C989        C  0.42065616  0.19937654  0.73084103     0.94200
Al990      Al  0.39191605  0.13948710  0.71171686     1.55600
O991        O  0.34550401  0.23362185  0.70141919    -0.77500
C992        C  0.35511919  0.08732462  0.68194566     0.98400
C993        C  0.43431682  0.16360962  0.65934603     0.93300
O994        O  0.41016012  0.18360572  0.65063581    -0.82800
O995        O  0.35097014  0.20607083  0.88614262    -0.82300
C996        C  0.35491864  0.15622641  0.50229340     0.97100
O997        O  0.33136336  0.16770409  0.98273901    -0.71400
O998        O  0.31054709  0.20600269  0.93852195    -0.75000
Al999      Al  0.33381657  0.16093096  0.94077650     1.49000
C1000       C  0.32208407  0.23490894  0.94848941     0.92300
O1001       O  0.42323895  0.23400323  0.94206721    -0.81200
O1002       O  0.44627303  0.16592174  0.92731791    -0.74800
Al1003     Al  0.38545015  0.21654963  0.91727331     1.90100
O1004       O  0.42207194  0.19749243  0.98001151    -0.73900
O1005       O  0.40358405  0.11216635  0.93850227    -0.73700
O1006       O  0.38414160  0.14379122  0.49328759    -0.79400
O1007       O  0.34678687  0.11186270  0.94444033    -0.77600
O1008       O  0.37708127  0.17762342  0.93842309    -1.13700
O1009       O  0.33330666  0.15327475  0.89872416    -0.72900
C1010       C  0.33895362  0.17612246  0.87871880     0.97800
C1011       C  0.43496927  0.22400246  0.96723531     0.94200
Al1012     Al  0.41090083  0.15634898  0.95801107     1.55600
O1013       O  0.35352926  0.24297317  0.94277419    -0.77500
C1014       C  0.37518709  0.09539056  0.93948201     0.98400
C1015       C  0.44665424  0.18033173  0.90138321     0.93300
O1016       O  0.41914782  0.19430742  0.89130495    -0.82800
O1017       O  0.65630714  0.82122059  0.51279233    -0.82300
C1018       C  0.66791412  0.88189482  0.62258362     0.97100
O1019       O  0.68798801  0.86897723  0.60243605    -0.71400
O1020       O  0.70059228  0.82467218  0.55886770    -0.75000
Al1021     Al  0.68147494  0.87209963  0.56000636     1.49000
C1022       C  0.68794494  0.79705227  0.57084380     0.92300
O1023       O  0.58537272  0.80909651  0.57635945    -0.81200
O1024       O  0.56822347  0.87506044  0.55917385    -0.74800
Al1025     Al  0.62353588  0.81892579  0.54695844     1.90100
O1026       O  0.59939313  0.84635484  0.61115717    -0.73900
O1027       O  0.61445059  0.92361026  0.56194755    -0.73700
O1028       O  0.64078693  0.89866946  0.61520586    -0.79400
O1029       O  0.67162571  0.92283831  0.56131276    -0.77600
O1030       O  0.63751903  0.85875144  0.56379942    -1.13700
O1031       O  0.67695547  0.87479020  0.51716028    -0.72900
C1032       C  0.66747545  0.84932426  0.50072510     0.97800
C1033       C  0.57897897  0.82342955  0.60193457     0.94200
Al1034     Al  0.60779494  0.88408924  0.58539008     1.55600
O1035       O  0.65512369  0.79223750  0.57103335    -0.77500
C1036       C  0.64288916  0.93945980  0.55876106     0.98400
C1037       C  0.56717143  0.86248732  0.53243626     0.93300
O1038       O  0.59164632  0.84309188  0.52222758    -0.82800
O1039       O  0.64944425  0.81053383  0.75401923    -0.82300
C1040       C  0.64841962  0.86195870  0.87072655     0.97100
O1041       O  0.66977514  0.84885118  0.85164785    -0.71400
O1042       O  0.69073718  0.81102976  0.80501464    -0.75000
Al1043     Al  0.66769435  0.85535421  0.80914820     1.49000
C1044       C  0.68003004  0.78133833  0.81345118     0.92300
O1045       O  0.57898486  0.78273350  0.81357399    -0.81200
O1046       O  0.55519021  0.85032493  0.79953182    -0.74800
Al1047     Al  0.61576226  0.79971800  0.78662114     1.90100
O1048       O  0.58043697  0.82055164  0.85118358    -0.73900
O1049       O  0.59855774  0.90348398  0.80674855    -0.73700
O1050       O  0.61975080  0.87508751  0.86203716    -0.79400
O1051       O  0.65506584  0.90424161  0.81298901    -0.77600
O1052       O  0.62452024  0.83872356  0.80777081    -1.13700
O1053       O  0.66835604  0.86278314  0.76749498    -0.72900
C1054       C  0.66219885  0.84037964  0.74723095     0.97800
C1055       C  0.56768348  0.79355442  0.83915092     0.94200
Al1056     Al  0.59103960  0.86084545  0.82819702     1.55600
O1057       O  0.64845786  0.77314597  0.80971638    -0.77500
C1058       C  0.62717280  0.91982995  0.80575884     0.98400
C1059       C  0.55406171  0.83582671  0.77362904     0.93300
O1060       O  0.58113444  0.82133576  0.76229198    -0.82800
O1061       O  0.64734594  0.20099276  0.59394413    -0.82300
C1062       C  0.64998579  0.14432250  0.47874499     0.97100
O1063       O  0.67095063  0.15970757  0.49622841    -0.71400
O1064       O  0.68933792  0.20059019  0.54214223    -0.75000
Al1065     Al  0.66816585  0.15563815  0.53943048     1.49000
C1066       C  0.67877291  0.23184493  0.53934375     0.92300
O1067       O  0.57734763  0.22613661  0.53820091    -0.81200
O1068       O  0.55512033  0.15561292  0.55267530    -0.74800
Al1069     Al  0.61395610  0.20965198  0.56335705     1.90100
O1070       O  0.57638301  0.18868071  0.50033080    -0.73900
O1071       O  0.60108337  0.10511798  0.54202958    -0.73700
O1072       O  0.61970226  0.13579382  0.48798884    -0.79400
O1073       O  0.65780979  0.10708760  0.53635451    -0.77600
O1074       O  0.62422994  0.17134445  0.54141418    -1.13700
O1075       O  0.66896183  0.14912921  0.58225161    -0.72900
C1076       C  0.66198666  0.17272993  0.60166840     0.97800
C1077       C  0.56541108  0.21652448  0.51304612     0.94200
Al1078     Al  0.59091778  0.14826126  0.52227438     1.55600
O1079       O  0.64634290  0.23865616  0.54095551    -0.77500
C1080       C  0.63045262  0.08984879  0.54165633     0.98400
C1081       C  0.55534604  0.16756116  0.57943691     0.93300
O1082       O  0.58099050  0.18526341  0.58857434    -0.82800
O1083       O  0.58347448  0.17401746  0.75696262    -0.82300
C1084       C  0.66217725  0.11962927  0.85020736     0.97100
O1085       O  0.63473886  0.10486968  0.84083735    -0.71400
O1086       O  0.59520973  0.15938943  0.84346704    -0.75000
Al1087     Al  0.60120943  0.12488874  0.81378228     1.49000
C1088       C  0.57926135  0.18737427  0.83807290     0.92300
O1089       O  0.65545011  0.21690186  0.80066476    -0.81200
O1090       O  0.67011428  0.13442247  0.74569904    -0.74800
Al1091     Al  0.61937588  0.19270008  0.78002750     1.90100
O1092       O  0.69651764  0.18006846  0.78639501    -0.73900
O1093       O  0.66294991  0.08527519  0.78883333    -0.73700
O1094       O  0.68183358  0.13595880  0.83168368    -0.79400
O1095       O  0.60589995  0.08706580  0.78577109    -0.77600
O1096       O  0.63170160  0.15093240  0.79387123    -1.13700
O1097       O  0.56027768  0.14110050  0.79208417    -0.72900
C1098       C  0.55690585  0.16096446  0.76932543     0.97800
C1099       C  0.68668965  0.21115468  0.79215087     0.94200
Al1100     Al  0.67490158  0.13498540  0.78864281     1.55600
O1101       O  0.58616413  0.20399871  0.81372280    -0.77500
C1102       C  0.63410432  0.06959394  0.78495215     0.98400
C1103       C  0.66210674  0.16161126  0.73074912     0.93300
O1104       O  0.64760824  0.18802328  0.74361250    -0.82800
O1105       O  0.80655668  0.66172426  0.68449765    -0.82300
C1106       C  0.86141966  0.65713409  0.57002526     0.97100
O1107       O  0.84982631  0.67960303  0.58868776    -0.71400
O1108       O  0.81103374  0.70333725  0.63316147    -0.75000
Al1109     Al  0.85482344  0.67807753  0.63092788     1.49000
C1110       C  0.78084697  0.69362628  0.62553558     0.92300
O1111       O  0.77974701  0.59134727  0.62547966    -0.81200
O1112       O  0.84555613  0.56473905  0.64246553    -0.74800
Al1113     Al  0.79662354  0.62796718  0.65243126     1.90100
O1114       O  0.81971591  0.59142396  0.58939070    -0.73900
O1115       O  0.90149363  0.60670766  0.63481661    -0.73700
O1116       O  0.87503897  0.62874061  0.57912517    -0.79400
O1117       O  0.90343206  0.66344272  0.62807186    -0.77600
O1118       O  0.83695529  0.63521862  0.63259614    -1.13700
O1119       O  0.86001054  0.67934065  0.67297637    -0.72900
C1120       C  0.83563397  0.67491462  0.69220825     0.97800
C1121       C  0.79158021  0.57979497  0.60031626     0.94200
Al1122     Al  0.85886022  0.60056492  0.61319388     1.55600
O1123       O  0.77240932  0.66177368  0.62839798    -0.77500
C1124       C  0.91889036  0.63485409  0.63404677     0.98400
C1125       C  0.82919406  0.56458056  0.66783494     0.93300
O1126       O  0.81553905  0.59267630  0.67801491    -0.82800
O1127       O  0.80790934  0.66111746  0.93247826    -0.82300
C1128       C  0.86040494  0.67867533  0.81872148     0.97100
O1129       O  0.84549728  0.69671408  0.83930625    -0.71400
O1130       O  0.80405707  0.70498438  0.88645528    -0.75000
Al1131     Al  0.85198719  0.69020075  0.88154337     1.49000
C1132       C  0.77738582  0.69029556  0.87536443     0.92300
O1133       O  0.79603814  0.58894817  0.87072101    -0.81200
O1134       O  0.86429111  0.57727553  0.88310151    -0.74800
Al1135     Al  0.80516652  0.62804231  0.89879830     1.90100
O1136       O  0.82890359  0.60593100  0.83332609    -0.73900
O1137       O  0.90879530  0.62769842  0.87632639    -0.73700
O1138       O  0.87740333  0.65122981  0.82507305    -0.79400
O1139       O  0.90209616  0.68491081  0.87658024    -0.77600
O1140       O  0.84221309  0.64511514  0.87905860    -1.13700
O1141       O  0.85883114  0.68598379  0.92376696    -0.72900
C1142       C  0.83605597  0.67442684  0.94219619     0.97800
C1143       C  0.80899428  0.58338285  0.84447224     0.94200
Al1144     Al  0.86798680  0.61739442  0.85604916     1.55600
O1145       O  0.77455435  0.65720241  0.87617040    -0.77500
C1146       C  0.92152947  0.65796339  0.87787686     0.98400
C1147       C  0.85349443  0.57523704  0.91044937     0.93300
O1148       O  0.83336509  0.59833884  0.92183021    -0.82800
O1149       O  0.17105218  0.58829401  0.68537717    -0.82300
C1150       C  0.12890133  0.66328007  0.58278452     0.97100
O1151       O  0.12029527  0.63186685  0.58862547    -0.71400
O1152       O  0.17536329  0.59055205  0.59710796    -0.75000
Al1153     Al  0.13377499  0.60019124  0.62051687     1.49000
C1154       C  0.20229806  0.57774588  0.60902783     0.92300
O1155       O  0.21931048  0.65892991  0.64235554    -0.81200
O1156       O  0.12944778  0.67321152  0.68847656    -0.74800
Al1157     Al  0.19303532  0.62349759  0.66271653     1.90100
O1158       O  0.17944501  0.69971136  0.64998658    -0.73900
O1159       O  0.08750832  0.66224019  0.64121210    -0.73700
O1160       O  0.14093543  0.68312533  0.60302300    -0.79400
O1161       O  0.08913937  0.60496476  0.64075612    -0.77600
O1162       O  0.15409025  0.63311741  0.64276797    -1.13700
O1163       O  0.14433752  0.56222526  0.64792807    -0.72900
C1164       C  0.15872042  0.56097484  0.67362798     0.97800
C1165       C  0.21127326  0.69077782  0.64706999     0.94200
Al1166     Al  0.13573043  0.67604555  0.64531224     1.55600
O1167       O  0.21156946  0.58861365  0.63473919    -0.77500
C1168       C  0.07166592  0.63316696  0.64228086     0.98400
C1169       C  0.15511855  0.66879505  0.70583559     0.93300
O1170       O  0.18290501  0.65424015  0.69605755    -0.82800
O1171       O  0.18555510  0.66439638  0.84478715    -0.82300
C1172       C  0.12050366  0.68123814  0.95547501     0.97100
O1173       O  0.13925080  0.69974790  0.93788627    -0.71400
O1174       O  0.18437647  0.71241275  0.89275004    -0.75000
Al1175     Al  0.13759507  0.69494729  0.89451256     1.49000
C1176       C  0.21386164  0.69936718  0.89881126     0.92300
O1177       O  0.19747348  0.59856499  0.91087929    -0.81200
O1178       O  0.13110482  0.58000044  0.89198565    -0.74800
Al1179     Al  0.18850064  0.63385521  0.87952027     1.90100
O1180       O  0.15565531  0.61061720  0.94390338    -0.73900
O1181       O  0.08450594  0.63046879  0.88990957    -0.73700
O1182       O  0.10442235  0.65497681  0.94525698    -0.79400
O1183       O  0.08747117  0.68770884  0.89502038    -0.77600
O1184       O  0.14924306  0.64994907  0.89652233    -1.13700
O1185       O  0.13545662  0.69265449  0.85174401    -0.72900
C1186       C  0.15977375  0.68148304  0.83441433     0.97800
C1187       C  0.18196763  0.59269858  0.93613537     0.94200
Al1188     Al  0.12111365  0.62122415  0.91617610     1.55600
O1189       O  0.21733080  0.66642634  0.90101478    -0.77500
C1190       C  0.07034004  0.66031580  0.88861782     0.98400
C1191       C  0.14569447  0.57602726  0.86629800     0.93300
O1192       O  0.16480441  0.59994252  0.85549365    -0.82800
O1193       O  0.82851866  0.41948313  0.81077208    -0.82300
C1194       C  0.88003680  0.34427823  0.71038975     0.97100
O1195       O  0.89615689  0.36935299  0.72283486    -0.71400
O1196       O  0.84532106  0.41442539  0.72343995    -0.75000
Al1197     Al  0.87727282  0.40165945  0.75273559     1.49000
C1198       C  0.81774220  0.43119336  0.72980029     0.92300
O1199       O  0.77922740  0.35442700  0.76270828    -0.81200
O1200       O  0.85956908  0.32666762  0.81211479    -0.74800
Al1201     Al  0.80718853  0.38670668  0.78514237     1.90100
O1202       O  0.81377241  0.30925599  0.76916599    -0.73900
O1203       O  0.90883058  0.33397178  0.77176659    -0.73700
O1204       O  0.86013579  0.32489515  0.72622683    -0.79400
O1205       O  0.91162879  0.39041523  0.78135975    -0.77600
O1206       O  0.84753770  0.37179979  0.76916466    -1.13700
O1207       O  0.86426440  0.44164568  0.77731850    -0.72900
C1208       C  0.84458557  0.44543681  0.80037125     0.97800
C1209       C  0.78378207  0.32164099  0.76473149     0.94200
Al1210     Al  0.85948417  0.32685494  0.76961376     1.55600
O1211       O  0.79970372  0.42336845  0.75356155    -0.77500
C1212       C  0.92502616  0.36009298  0.78230301     0.98400
C1213       C  0.83560239  0.33792050  0.82967862     0.93300
O1214       O  0.80962105  0.35513199  0.81961867    -0.82800
O1215       O  0.81795900  0.36251392  0.96888664    -0.82300
C1216       C  0.87550987  0.35894267  0.58167086     0.97100
O1217       O  0.86376848  0.33778747  0.56225506    -0.71400
O1218       O  0.82001691  0.32254008  0.51885258    -0.75000
Al1219     Al  0.86643675  0.34200782  0.51921582     1.49000
C1220       C  0.78954665  0.33487317  0.52398609     0.92300
O1221       O  0.79880770  0.43675862  0.52425549    -0.81200
O1222       O  0.86736625  0.45374644  0.01108416    -0.74800
Al1223     Al  0.81270630  0.39662065  0.99986098     1.90100
O1224       O  0.83365958  0.43473186  0.56271934    -0.73900
O1225       O  0.91865359  0.40897936  0.52206163    -0.73700
O1226       O  0.88412408  0.38978645  0.57442572    -0.79400
O1227       O  0.91634123  0.35217721  0.01936041    -0.77600
O1228       O  0.85166691  0.38638770  0.52005333    -1.13700
O1229       O  0.87057383  0.34136867  0.97489457    -0.72900
C1230       C  0.84434095  0.34651408  0.95838792     0.97800
C1231       C  0.80740536  0.44771344  0.54995418     0.94200
Al1232     Al  0.87451521  0.41905777  0.54069849     1.55600
O1233       O  0.78432999  0.36551743  0.02327699    -0.77500
C1234       C  0.93392414  0.37976507  0.51913619     0.98400
C1235       C  0.85621963  0.45306966  0.98419335     0.93300
O1236       O  0.83801798  0.42782568  0.97470479    -0.82800
O1237       O  0.18441427  0.43262487  0.98213619    -0.82300
C1238       C  0.14043076  0.35448142  0.58549958     0.97100
O1239       O  0.13041601  0.38496036  0.57797945    -0.71400
O1240       O  0.18421907  0.42760304  0.57086151    -0.75000
Al1241     Al  0.14521079  0.41673520  0.54646456     1.49000
C1242       C  0.21150273  0.44141489  0.55979854     0.92300
O1243       O  0.23486290  0.36076766  0.02151509    -0.81200
O1244       O  0.14538485  0.34354381  0.98066444    -0.74800
Al1245     Al  0.20682536  0.39649791  0.00354826     1.90100
O1246       O  0.19654348  0.31884139  0.01698150    -0.73900
O1247       O  0.10263537  0.35377572  0.02811756    -0.73700
O1248       O  0.15641314  0.33480474  0.56646711    -0.79400
O1249       O  0.10309195  0.40981320  0.52433796    -0.77600
O1250       O  0.16890651  0.38465972  0.52507705    -1.13700
O1251       O  0.15583923  0.45639868  0.02037880    -0.72900
C1252       C  0.17086527  0.45922909  0.99474247     0.97800
C1253       C  0.22809084  0.32878787  0.01649353     0.94200
Al1254     Al  0.15179097  0.34151496  0.02346483     1.55600
O1255       O  0.22405787  0.43048972  0.53461960    -0.77500
C1256       C  0.08674789  0.38107460  0.52325164     0.98400
C1257       C  0.16944490  0.35056033  0.96159681     0.93300
O1258       O  0.19673199  0.36658464  0.96966750    -0.82800
O1259       O  0.18940884  0.35518780  0.81989491    -0.82300
C1260       C  0.11967355  0.33863251  0.71380268     0.97100
O1261       O  0.13868348  0.32010943  0.73066559    -0.71400
O1262       O  0.18684137  0.30904544  0.77112109    -0.75000
Al1263     Al  0.13931301  0.32438112  0.77410528     1.49000
C1264       C  0.21328995  0.32395853  0.75952468     0.92300
O1265       O  0.19294845  0.42343779  0.75529004    -0.81200
O1266       O  0.12745754  0.43865316  0.77872185    -0.74800
Al1267     Al  0.18784352  0.38703606  0.78595291     1.90100
O1268       O  0.15064152  0.41005679  0.72457453    -0.73900
O1269       O  0.08313895  0.38664908  0.78295633    -0.73700
O1270       O  0.10184054  0.36352408  0.72538886    -0.79400
O1271       O  0.08930423  0.32966235  0.77785497    -0.77600
O1272       O  0.14843233  0.36978087  0.77172760    -1.13700
O1273       O  0.13989799  0.32605136  0.81713703    -0.72900
C1274       C  0.16494757  0.33774680  0.83246847     0.97800
C1275       C  0.17648932  0.42861163  0.73094205     0.94200
Al1276     Al  0.11802697  0.39761518  0.75431990     1.55600
O1277       O  0.21601761  0.35698062  0.76053397    -0.77500
C1278       C  0.07101557  0.35613960  0.78563446     0.98400
C1279       C  0.14349265  0.44268045  0.80331434     0.93300
O1280       O  0.16382512  0.41899592  0.81260482    -0.82800
C1281       C  0.16517365  0.33291781  0.86568262    -0.06000
C1282       C  0.13383225  0.33604149  0.88270519    -0.33400
C1283       C  0.13440078  0.33953914  0.91441735     0.35900
C1284       C  0.16667469  0.34025957  0.92933875    -0.06300
C1285       C  0.19760761  0.33404684  0.91244874    -0.33300
C1286       C  0.19698754  0.33013135  0.88097564     0.35800
H1287       H  0.10906224  0.33814442  0.87129274     0.16100
O1288       O  0.10364409  0.34539928  0.93014821    -0.60800
H1289       H  0.22261831  0.33338795  0.92361087     0.16100
O1290       O  0.22785801  0.32504352  0.86522855    -0.60900
H1291       H  0.22977510  0.29924321  0.86225087     0.43100
H1292       H  0.09465770  0.32170669  0.93514940     0.43100
C1293       C  0.13234554  0.34276177  0.61694051    -0.06000
C1294       C  0.10118818  0.35460557  0.63097891    -0.33400
C1295       C  0.09516717  0.35043907  0.66214913     0.35900
C1296       C  0.12062500  0.33418258  0.68018938    -0.06300
C1297       C  0.15040649  0.31942975  0.66566215    -0.33300
C1298       C  0.15628846  0.32348390  0.63424738     0.35800
H1299       H  0.08193296  0.36861974  0.61790653     0.16100
O1300       O  0.06472062  0.36341672  0.67490178    -0.60800
H1301       H  0.17045579  0.30695035  0.67896104     0.16100
O1302       O  0.18703178  0.31152904  0.62138449    -0.60900
H1303       H  0.18310237  0.28626256  0.61719481     0.43100
H1304       H  0.06800616  0.38920340  0.67618084     0.43100
C1305       C  0.97314269  0.37878180  0.51622583    -0.06000
C1306       C  0.99099108  0.41228561  0.01669919    -0.33400
C1307       C  0.02763646  0.41345682  0.01837016     0.35900
C1308       C  0.04789053  0.38041847  0.51869136    -0.06300
C1309       C  0.02944540  0.34854640  0.52107001    -0.33300
C1310       C  0.99268335  0.34750099  0.51969041     0.35800
H1311       H  0.97670736  0.43690138  0.01632113     0.16100
O1312       O  0.04361633  0.44559578  0.01891838    -0.60800
H1313       H  0.04348285  0.32423231  0.52480489     0.16100
O1314       O  0.97621430  0.31585925  0.52322671    -0.60900
H1315       H  0.97367033  0.30646843  0.50236468     0.43100
H1316       H  0.04363390  0.45265556  0.04062651     0.43100
C1317       C  0.96106363  0.35541448  0.79255157    -0.06000
C1318       C  0.97876043  0.32399421  0.78530981    -0.33400
C1319       C  0.01510087  0.32224831  0.78624700     0.35900
C1320       C  0.03402888  0.35232449  0.79449555    -0.06300
C1321       C  0.01597432  0.38172609  0.80628065    -0.33300
C1322       C  0.97963438  0.38336889  0.80551421     0.35800
H1323       H  0.96482479  0.30166227  0.77629697     0.16100
O1324       O  0.03171435  0.29253570  0.77560881    -0.60800
H1325       H  0.03010246  0.40464896  0.81388190     0.16100
O1326       O  0.96296786  0.41353678  0.81506219    -0.60900
H1327       H  0.95488456  0.40866856  0.83609923     0.43100
H1328       H  0.03343800  0.27696229  0.79344639     0.43100
C1329       C  0.84339981  0.33555223  0.92623284    -0.06000
C1330       C  0.87393164  0.33577271  0.90822247    -0.33400
C1331       C  0.87189879  0.33424494  0.87653360     0.35900
C1332       C  0.83891472  0.33251400  0.86258087    -0.06300
C1333       C  0.80875927  0.32939959  0.88069768    -0.33300
C1334       C  0.81081695  0.33034984  0.91222739     0.35800
H1335       H  0.89912852  0.33967710  0.91852814     0.16100
O1336       O  0.90210759  0.33698239  0.85946359    -0.60800
H1337       H  0.78334728  0.32738611  0.87036354     0.16100
O1338       O  0.78044460  0.32814284  0.92913141    -0.60900
H1339       H  0.77853073  0.30305554  0.93481158     0.43100
H1340       H  0.90514594  0.36247015  0.85588769     0.43100
C1341       C  0.88284965  0.34018371  0.67700283    -0.06000
C1342       C  0.85491567  0.32575369  0.66085110    -0.33400
C1343       C  0.85303115  0.32980366  0.62928910     0.35900
C1344       C  0.87937921  0.34836827  0.61355874    -0.06300
C1345       C  0.90844539  0.36041537  0.62938635    -0.33300
C1346       C  0.91056579  0.35609603  0.66068579     0.35800
H1347       H  0.83328472  0.31353911  0.67289236     0.16100
O1348       O  0.82420553  0.31774765  0.61446218    -0.60800
H1349       H  0.92916605  0.37431912  0.61751563     0.16100
O1350       O  0.93904151  0.36935722  0.67526913    -0.60900
H1351       H  0.95422069  0.34873281  0.67919646     0.43100
H1352       H  0.80786006  0.33803970  0.61387031     0.43100
C1353       C  0.18855745  0.56073324  0.95417765    -0.06000
C1354       C  0.17138478  0.55796186  0.98255348    -0.33400
C1355       C  0.16479151  0.52533653  0.99569223     0.35900
C1356       C  0.17598620  0.49429795  0.98077931    -0.06300
C1357       C  0.19588191  0.49726238  0.95369872    -0.33300
C1358       C  0.20229800  0.53006300  0.94047218     0.35800
H1359       H  0.16087065  0.58119217  0.99381406     0.16100
O1360       O  0.14740168  0.52431989  0.02316020    -0.60800
H1361       H  0.20622238  0.47401807  0.94239269     0.16100
O1362       O  0.22096079  0.53163626  0.91366662    -0.60900
H1363       H  0.20407289  0.52579491  0.89764041     0.43100
H1364       H  0.12227612  0.52559884  0.01830075     0.43100
C1365       C  0.14197329  0.54224610  0.84991568    -0.06000
C1366       C  0.14076066  0.51082293  0.86649167    -0.33400
C1367       C  0.14072600  0.47816551  0.85169692     0.35900
C1368       C  0.14055116  0.47651935  0.81981772    -0.06300
C1369       C  0.13986525  0.50795670  0.80327158    -0.33300
C1370       C  0.14115121  0.54060558  0.81803301     0.35800
H1371       H  0.14121413  0.51153589  0.89104630     0.16100
O1372       O  0.14143231  0.44806990  0.86860755    -0.60800
H1373       H  0.13970585  0.50720022  0.77872051     0.16100
O1374       O  0.14203904  0.57066600  0.80106690    -0.60900
H1375       H  0.11734834  0.57860319  0.80003075     0.43100
H1376       H  0.11680830  0.44007059  0.86982371     0.43100
C1377       C  0.12476551  0.67659003  0.55179003    -0.06000
C1378       C  0.09306856  0.67137622  0.53709761    -0.33400
C1379       C  0.08968810  0.67549952  0.00546515     0.35900
C1380       C  0.11909960  0.68700405  0.98857294    -0.06300
C1381       C  0.14992034  0.69530087  0.00383041    -0.33300
C1382       C  0.15297720  0.69190573  0.53582742     0.35800
H1383       H  0.07078633  0.66076331  0.54943336     0.16100
O1384       O  0.05850644  0.66920235  0.99151792    -0.60800
H1385       H  0.17293977  0.70359983  0.99116317     0.16100
O1386       O  0.18421724  0.69747794  0.54979168    -0.60900
H1387       H  0.18270932  0.72183166  0.55779330     0.43100
H1388       H  0.05670399  0.64329347  0.98996364     0.43100
C1389       C  0.15425801  0.68026601  0.73791631    -0.06000
C1390       C  0.18635656  0.68628524  0.75209041    -0.33400
C1391       C  0.18817992  0.68949015  0.78349319     0.35900
C1392       C  0.15758613  0.68675981  0.80141835    -0.06300
C1393       C  0.12502459  0.68458698  0.78717748    -0.33300
C1394       C  0.12319663  0.68144926  0.75551676     0.35800
H1395       H  0.21051369  0.68677391  0.73886409     0.16100
O1396       O  0.22026891  0.69335062  0.79649482    -0.60800
H1397       H  0.10116119  0.68279500  0.80069081     0.16100
O1398       O  0.09135105  0.67634925  0.74246291    -0.60900
H1399       H  0.08304088  0.70020812  0.73706090     0.43100
H1400       H  0.22122571  0.71827883  0.80302587     0.43100
C1401       C  0.16529068  0.52674531  0.68822139    -0.06000
C1402       C  0.15831630  0.49573647  0.67211427    -0.33400
C1403       C  0.16669978  0.46301428  0.68402586     0.35900
C1404       C  0.18138947  0.46069705  0.71308647    -0.06300
C1405       C  0.19056995  0.49155610  0.72834171    -0.33300
C1406       C  0.18273310  0.52439283  0.71618167     0.35800
H1407       H  0.14635377  0.49674557  0.65005643     0.16100
O1408       O  0.15778536  0.43340101  0.66804560    -0.60800
H1409       H  0.20133897  0.49035666  0.75087444     0.16100
O1410       O  0.19091771  0.55386900  0.73255976    -0.60900
H1411       H  0.21584018  0.55846716  0.72767025     0.43100
H1412       H  0.17994255  0.42045355  0.66416317     0.43100
C1413       C  0.21789946  0.54477120  0.59640297    -0.06000
C1414       C  0.22062949  0.51579526  0.61589774    -0.33400
C1415       C  0.22238656  0.48136805  0.60438132     0.35900
C1416       C  0.22332170  0.47539899  0.57288719    -0.06300
C1417       C  0.22606061  0.50466109  0.55356148    -0.33300
C1418       C  0.22243770  0.53909529  0.56504032     0.35800
H1419       H  0.21788964  0.51956849  0.64015666     0.16100
O1420       O  0.22020048  0.45371141  0.62401976    -0.60800
H1421       H  0.22734303  0.50079233  0.52923518     0.16100
O1422       O  0.22232930  0.56685622  0.54538600    -0.60900
H1423       H  0.19733784  0.57230432  0.54207600     0.43100
H1424       H  0.24483212  0.44655106  0.62755218     0.43100
C1425       C  0.86172367  0.54432415  0.92879250    -0.06000
C1426       C  0.86347668  0.51103734  0.91503001    -0.33400
C1427       C  0.86293410  0.48069503  0.93276946     0.35900
C1428       C  0.86208582  0.48364929  0.96463818    -0.06300
C1429       C  0.86352363  0.51696437  0.97822402    -0.33300
C1430       C  0.86303752  0.54715185  0.96058659     0.35800
H1431       H  0.86279372  0.50846903  0.89056970     0.16100
O1432       O  0.86276018  0.44839731  0.91882027    -0.60800
H1433       H  0.86288700  0.51974920  0.00270034     0.16100
O1434       O  0.86214379  0.57931310  0.97472788    -0.60900
H1435       H  0.88702390  0.58584087  0.97714504     0.43100
H1436       H  0.83816841  0.44455117  0.91292547     0.43100
C1437       C  0.95967511  0.66100381  0.87903641    -0.06000
C1438       C  0.97999933  0.63386838  0.86606576    -0.33400
C1439       C  0.01621760  0.63452102  0.86736609     0.35900
C1440       C  0.03285913  0.66242632  0.88228838    -0.06300
C1441       C  0.01269633  0.69038719  0.89419233    -0.33300
C1442       C  0.97620121  0.68987705  0.89251229     0.35800
H1443       H  0.96774350  0.61182030  0.85489735     0.16100
O1444       O  0.03498869  0.60717405  0.85469063    -0.60800
H1445       H  0.02508576  0.71187948  0.90600053     0.16100
O1446       O  0.95696586  0.71648297  0.90576370    -0.60900
H1447       H  0.95552490  0.73492107  0.89006058     0.43100
H1448       H  0.04324679  0.61583205  0.83464786     0.43100
C1449       C  0.81048624  0.54783971  0.83061593    -0.06000
C1450       C  0.83113877  0.54363877  0.80407495    -0.33400
C1451       C  0.84443973  0.51099260  0.79531547     0.35900
C1452       C  0.83569626  0.48088942  0.81215465    -0.06300
C1453       C  0.81316574  0.48459489  0.83763264    -0.33300
C1454       C  0.80075742  0.51770661  0.84700944     0.35800
H1455       H  0.83919767  0.56625286  0.79095339     0.16100
O1456       O  0.86551079  0.50897448  0.76984877    -0.60800
H1457       H  0.80511603  0.46174791  0.85044450     0.16100
O1458       O  0.77956119  0.52027658  0.87235361    -0.60900
H1459       H  0.79552462  0.51932980  0.88980706     0.43100
H1460       H  0.88961278  0.51248659  0.77717465     0.43100
C1461       C  0.81189916  0.46368237  0.71172611    -0.06000
C1462       C  0.80053522  0.49486643  0.72614008    -0.33400
C1463       C  0.80617304  0.52792282  0.71257569     0.35900
C1464       C  0.82345663  0.53038754  0.68394598    -0.06300
C1465       C  0.83285798  0.49896802  0.66898350    -0.33300
C1466       C  0.82727888  0.46617318  0.68244459     0.35800
H1467       H  0.78936870  0.49386512  0.74886446     0.16100
O1468       O  0.79510891  0.55753050  0.72783866    -0.60800
H1469       H  0.84497189  0.49962441  0.64660388     0.16100
O1470       O  0.83788841  0.43642375  0.66703108    -0.60900
H1471       H  0.86382138  0.43652672  0.66741759     0.43100
H1472       H  0.81617361  0.56664143  0.73797269     0.43100
C1473       C  0.95773051  0.63448457  0.63881626    -0.06000
C1474       C  0.97585065  0.60261028  0.64304742    -0.33400
C1475       C  0.01263838  0.60158945  0.64519660     0.35900
C1476       C  0.03235492  0.63286729  0.64334589    -0.06300
C1477       C  0.01403243  0.66472713  0.64018913    -0.33300
C1478       C  0.97748841  0.66577733  0.63799392     0.35800
H1479       H  0.96156348  0.57815310  0.64408262     0.16100
O1480       O  0.02891134  0.56981971  0.64913431    -0.60800
H1481       H  0.02815995  0.68924611  0.63862944     0.16100
O1482       O  0.96161957  0.69775171  0.63409021    -0.60900
H1483       H  0.95494800  0.70585862  0.65481594     0.43100
H1484       H  0.03028100  0.55895794  0.62865513     0.43100
C1485       C  0.84231529  0.68345240  0.72424295    -0.06000
C1486       C  0.87665359  0.68018036  0.73470715    -0.33400
C1487       C  0.88345360  0.68152374  0.76566367     0.35900
C1488       C  0.85588592  0.68720663  0.78662237    -0.06300
C1489       C  0.82208761  0.69391569  0.77608342    -0.33300
C1490       C  0.81513604  0.69188721  0.74504586     0.35800
H1491       H  0.89806471  0.67421894  0.71905230     0.16100
O1492       O  0.91694941  0.67617323  0.77536810    -0.60800
H1493       H  0.80057570  0.69812242  0.79205751     0.16100
O1494       O  0.78154450  0.69670129  0.73549040    -0.60900
H1495       H  0.78051788  0.72144035  0.72861150     0.43100
H1496       H  0.92098857  0.65045920  0.77376902     0.43100
C1497       C  0.85606041  0.66302265  0.53753067    -0.06000
C1498       C  0.88404459  0.66137721  0.51670826    -0.33400
C1499       C  0.87657543  0.66466194  0.98555897     0.35900
C1500       C  0.84321034  0.67430525  0.97502190    -0.06300
C1501       C  0.81594979  0.68023268  0.99609363    -0.33300
C1502       C  0.82196342  0.66914886  0.52709926     0.35800
H1503       H  0.91030690  0.65644780  0.52450844     0.16100
O1504       O  0.90376530  0.65824645  0.96554974    -0.60800
H1505       H  0.79022844  0.68770411  0.98840946     0.16100
O1506       O  0.79405133  0.67084073  0.54706869    -0.60900
H1507       H  0.78701034  0.64610586  0.55044338     0.43100
H1508       H  0.91637566  0.68087869  0.96385280     0.43100
C1509       C  0.79028043  0.47969723  0.56238326    -0.06000
C1510       C  0.78718124  0.50874777  0.54310205    -0.33400
C1511       C  0.78146396  0.54243314  0.55499831     0.35900
C1512       C  0.77815517  0.54731396  0.58659569    -0.06300
C1513       C  0.77566494  0.51763192  0.60531301    -0.33300
C1514       C  0.78254185  0.48397261  0.59346545     0.35800
H1515       H  0.79294914  0.50593034  0.51905188     0.16100
O1516       O  0.78411820  0.57075668  0.53602023    -0.60800
H1517       H  0.77304122  0.52085704  0.62967012     0.16100
O1518       O  0.78327079  0.45578688  0.61260715    -0.60900
H1519       H  0.80831207  0.45210544  0.61704837     0.43100
H1520       H  0.76014502  0.58067868  0.53511503     0.43100
C1521       C  0.75462794  0.29636204  0.76556740    -0.06000
C1522       C  0.76233594  0.26166168  0.75704838    -0.33400
C1523       C  0.74095885  0.23404156  0.76608384     0.35900
C1524       C  0.71050744  0.24055767  0.78400286    -0.06300
C1525       C  0.70133837  0.27565770  0.79072053    -0.33300
C1526       C  0.72317940  0.30347848  0.78165956     0.35800
H1527       H  0.78636017  0.25558941  0.74463081     0.16100
O1528       O  0.75082997  0.20063094  0.75770922    -0.60800
H1529       H  0.67757774  0.28152385  0.80353499     0.16100
O1530       O  0.71488527  0.33703520  0.79071085    -0.60900
H1531       H  0.70357033  0.34784736  0.77296612     0.43100
H1532       H  0.74084072  0.19690301  0.73737221     0.43100
C1533       C  0.76036339  0.30987266  0.52985561    -0.06000
C1534       C  0.72527894  0.31949528  0.52492254    -0.33400
C1535       C  0.69807864  0.29477472  0.52790480     0.35900
C1536       C  0.70577088  0.25974054  0.53577597    -0.06300
C1537       C  0.74078140  0.25062851  0.54118641    -0.33300
C1538       C  0.76764680  0.27504178  0.53849350     0.35800
H1539       H  0.71898558  0.34598683  0.51800701     0.16100
O1540       O  0.66444411  0.30488694  0.52200589    -0.60800
H1541       H  0.74770433  0.22417030  0.54776913     0.16100
O1542       O  0.80115123  0.26416693  0.54411548    -0.60900
H1543       H  0.80508617  0.27033422  0.56564417     0.43100
H1544       H  0.65451996  0.31285901  0.54180539     0.43100
C1545       C  0.66354459  0.13234888  0.94661435    -0.06000
C1546       C  0.64799294  0.10275946  0.93350592    -0.33400
C1547       C  0.65059195  0.09631378  0.90241356     0.35900
C1548       C  0.66850343  0.12004313  0.88333387    -0.06300
C1549       C  0.68685794  0.14796670  0.89669210    -0.33300
C1550       C  0.68455697  0.15415488  0.92820528     0.35800
H1551       H  0.63248111  0.08506481  0.94735833     0.16100
O1552       O  0.63349934  0.06783568  0.89073134    -0.60800
H1553       H  0.70090691  0.16649187  0.88253290     0.16100
O1554       O  0.70105619  0.18270310  0.94036142    -0.60900
H1555       H  0.68459417  0.20263141  0.93784222     0.43100
H1556       H  0.65133797  0.04886012  0.88954379     0.43100
C1557       C  0.66947747  0.16792274  0.63404691    -0.06000
C1558       C  0.67396881  0.19798622  0.65202212    -0.33400
C1559       C  0.67379260  0.19586985  0.68352052     0.35900
C1560       C  0.66898620  0.16319508  0.69777450    -0.06300
C1561       C  0.66713877  0.13264940  0.67987115    -0.33300
C1562       C  0.66702649  0.13485603  0.64811890     0.35800
H1563       H  0.67613989  0.22361697  0.64162870     0.16100
O1564       O  0.67668274  0.22622951  0.70017381    -0.60800
H1565       H  0.66343189  0.10732070  0.69047361     0.16100
O1566       O  0.66210137  0.10494285  0.63128752    -0.60900
H1567       H  0.63636881  0.10238067  0.62994661     0.43100
H1568       H  0.70214582  0.23050262  0.70154374     0.43100
C1569       C  0.70473881  0.75723337  0.82867570    -0.06000
C1570       C  0.69692983  0.72145454  0.83251454    -0.33400
C1571       C  0.71976595  0.69912294  0.84811265     0.35900
C1572       C  0.75081530  0.71260213  0.86047775    -0.06300
C1573       C  0.75817836  0.74838006  0.85679228    -0.33300
C1574       C  0.73585114  0.77043617  0.84108778     0.35800
H1575       H  0.67315907  0.71071691  0.82332093     0.16100
O1576       O  0.71164090  0.66423548  0.85069036    -0.60800
H1577       H  0.78180762  0.75961643  0.86583008     0.16100
O1578       O  0.74433086  0.80530550  0.83905783    -0.60900
H1579       H  0.76077101  0.80687851  0.82142716     0.43100
H1580       H  0.69803183  0.66240417  0.86994269     0.43100
C1581       C  0.62845845  0.95745529  0.79666674    -0.06000
C1582       C  0.66103821  0.97374619  0.79191561    -0.33400
C1583       C  0.66336911  0.00970185  0.78555490     0.35900
C1584       C  0.63275414  0.03047138  0.78416352    -0.06300
C1585       C  0.60015976  0.01366924  0.78679990    -0.33300
C1586       C  0.59782281  0.97770945  0.79307498     0.35800
H1587       H  0.68502803  0.95872984  0.79375111     0.16100
O1588       O  0.69584497  0.02442431  0.78215809    -0.60800
H1589       H  0.57615034  0.02876007  0.78558892     0.16100
O1590       O  0.56533813  0.96302780  0.79654572    -0.60900
H1591       H  0.55901549  0.96635199  0.81827499     0.43100
H1592       H  0.70185938  0.02179962  0.76030178     0.43100
C1593       C  0.75616137  0.71996381  0.61254683    -0.06000
C1594       C  0.76898498  0.75292890  0.60354127    -0.33400
C1595       C  0.74741405  0.77783183  0.58973921     0.35900
C1596       C  0.71175416  0.77051120  0.58477779    -0.06300
C1597       C  0.69868071  0.73781547  0.59437235    -0.33300
C1598       C  0.72048711  0.71265339  0.60783817     0.35800
H1599       H  0.79620149  0.75945717  0.60680135     0.16100
O1600       O  0.76151444  0.80961763  0.58189802    -0.60800
H1601       H  0.67138128  0.73152743  0.59129914     0.16100
O1602       O  0.70634798  0.68130663  0.61682476    -0.60900
H1603       H  0.70813430  0.66581445  0.59868375     0.43100
H1604       H  0.77191512  0.80596695  0.56136361     0.43100
C1605       C  0.64094771  0.97792013  0.55369228    -0.06000
C1606       C  0.60771442  0.99419249  0.55440963    -0.33400
C1607       C  0.60385194  0.03033514  0.55087166     0.35900
C1608       C  0.63353489  0.05146322  0.54651896    -0.06300
C1609       C  0.66686995  0.03535346  0.54594700    -0.33300
C1610       C  0.67070972  0.99897734  0.54943334     0.35800
H1611       H  0.58419847  0.97890537  0.55795396     0.16100
O1612       O  0.57084475  0.04458754  0.55210975    -0.60800
H1613       H  0.69021793  0.05096161  0.54267587     0.16100
O1614       O  0.70363118  0.98455666  0.54903044    -0.60900
H1615       H  0.70823205  0.97766569  0.52759129     0.43100
H1616       H  0.56266048  0.04409590  0.53086035     0.43100
C1617       C  0.65637639  0.86058205  0.90347878    -0.06000
C1618       C  0.67366557  0.83094629  0.91495762    -0.33400
C1619       C  0.67770684  0.82662220  0.94627734     0.35900
C1620       C  0.66572747  0.85278677  0.96659957    -0.06300
C1621       C  0.65010788  0.88327875  0.95505123    -0.33300
C1622       C  0.64500229  0.88710969  0.92382405     0.35800
H1623       H  0.68264781  0.81025767  0.89969541     0.16100
O1624       O  0.69356940  0.79684362  0.95680975    -0.60800
H1625       H  0.64037258  0.90350159  0.97044658     0.16100
O1626       O  0.62823886  0.91653330  0.91355095    -0.60900
H1627       H  0.64705130  0.93184303  0.90546573     0.43100
H1628       H  0.67474009  0.77907740  0.95813713     0.43100
C1629       C  0.66800285  0.85104229  0.71545127    -0.06000
C1630       C  0.65962350  0.88579868  0.70769621    -0.33400
C1631       C  0.66177623  0.89704562  0.67768885     0.35900
C1632       C  0.67325999  0.87370125  0.65478834    -0.06300
C1633       C  0.68366095  0.83948126  0.66270879    -0.33300
C1634       C  0.68050309  0.82787954  0.69278497     0.35800
H1635       H  0.64983599  0.90401067  0.72486313     0.16100
O1636       O  0.65107386  0.93044186  0.67082452    -0.60800
H1637       H  0.69209792  0.82097853  0.64526776     0.16100
O1638       O  0.68981281  0.79411171  0.69977526    -0.60900
H1639       H  0.66922304  0.77962488  0.69466571     0.43100
H1640       H  0.67285819  0.94440064  0.66937263     0.43100
C1641       C  0.29904749  0.25853536  0.96767547    -0.06000
C1642       C  0.30965775  0.29287386  0.97503902    -0.33400
C1643       C  0.28827757  0.31539190  0.99298916     0.35900
C1644       C  0.25554371  0.30377327  0.00442426    -0.06300
C1645       C  0.24557730  0.26866049  0.49755774    -0.33300
C1646       C  0.26721279  0.24641737  0.98050453     0.35800
H1647       H  0.33436202  0.30269810  0.96630525     0.16100
O1648       O  0.29933275  0.34900186  0.99841127    -0.60800
H1649       H  0.22040190  0.25905724  0.50540636     0.16100
O1650       O  0.25383794  0.21362158  0.47241778    -0.60900
H1651       H  0.23892285  0.21665879  0.45443685     0.43100
H1652       H  0.29259968  0.36254915  0.98027581     0.43100
C1653       C  0.48076856  0.18425032  0.88480457    -0.06000
C1654       C  0.51143023  0.17317822  0.89910022    -0.33400
C1655       C  0.54441209  0.17850789  0.88582597     0.35900
C1656       C  0.54766268  0.19463570  0.85716939    -0.06300
C1657       C  0.51733652  0.20772750  0.84361433    -0.33300
C1658       C  0.48415587  0.20285693  0.85722895     0.35800
H1659       H  0.51006941  0.16038464  0.92095789     0.16100
O1660       O  0.57347550  0.16689901  0.90071661    -0.60800
H1661       H  0.51903231  0.21973157  0.82143561     0.16100
O1662       O  0.45525908  0.21547008  0.84283431    -0.60900
H1663       H  0.45300579  0.24031483  0.84947775     0.43100
H1664       H  0.57298256  0.14085597  0.89913991     0.43100
C1665       C  0.46832849  0.23773205  0.97895171    -0.06000
C1666       C  0.47157007  0.24233482  0.50949408    -0.33400
C1667       C  0.50529271  0.24039674  0.52112692     0.35900
C1668       C  0.53411772  0.23431590  0.50128993    -0.06300
C1669       C  0.52952719  0.23789768  0.47002617    -0.33300
C1670       C  0.49778119  0.23969225  0.95924689     0.35800
H1671       H  0.44926807  0.24130122  0.52496881     0.16100
O1672       O  0.50907064  0.23910641  0.55195220    -0.60800
H1673       H  0.55150491  0.23429587  0.45444963     0.16100
O1674       O  0.49372698  0.24325995  0.92863606    -0.60900
H1675       H  0.49063677  0.26882599  0.92537883     0.43100
H1676       H  0.51525170  0.26336917  0.55803306     0.43100
C1677       C  0.23975869  0.30169054  0.74371194    -0.06000
C1678       C  0.22805522  0.27118916  0.72933209    -0.33400
C1679       C  0.25128147  0.24813979  0.71477827     0.35900
C1680       C  0.28760554  0.25510019  0.71418789    -0.06300
C1681       C  0.29942243  0.28616887  0.72810984    -0.33300
C1682       C  0.27574201  0.30945257  0.74273827     0.35800
H1683       H  0.20041692  0.26499554  0.72933144     0.16100
O1684       O  0.23782435  0.21875239  0.70126548    -0.60800
H1685       H  0.32707644  0.29214861  0.72814031     0.16100
O1686       O  0.28810754  0.33911333  0.75656815    -0.60900
H1687       H  0.29452348  0.33161861  0.77725354     0.43100
H1688       H  0.23596062  0.20109220  0.71764589     0.43100
C1689       C  0.52444439  0.16209528  0.59961319    -0.06000
C1690       C  0.52858618  0.15728927  0.63090818    -0.33400
C1691       C  0.49934452  0.15464278  0.65048770     0.35900
C1692       C  0.46538537  0.15886998  0.63910235    -0.06300
C1693       C  0.46131595  0.16222669  0.60766480    -0.33300
C1694       C  0.49035211  0.16303358  0.58794578     0.35800
H1695       H  0.55457331  0.15574968  0.64021439     0.16100
O1696       O  0.50441020  0.14991423  0.68084968    -0.60800
H1697       H  0.43542667  0.16494670  0.59831655     0.16100
O1698       O  0.48504900  0.16719728  0.55749941    -0.60900
H1699       H  0.48035834  0.14328336  0.54961977     0.43100
H1700       H  0.50272268  0.12420732  0.68400043     0.43100
C1701       C  0.32782151  0.15013716  0.78391565    -0.06000
C1702       C  0.33241587  0.12357740  0.80527777    -0.33400
C1703       C  0.33417736  0.13159012  0.83628437     0.35900
C1704       C  0.33256656  0.16695862  0.84642415    -0.06300
C1705       C  0.32730806  0.19345338  0.82499496    -0.33300
C1706       C  0.32473527  0.18527684  0.79405261     0.35800
H1707       H  0.33557027  0.09657247  0.79782127     0.16100
O1708       O  0.34006134  0.10475003  0.85618481    -0.60800
H1709       H  0.32606786  0.22070180  0.83212886     0.16100
O1710       O  0.32135728  0.21211238  0.77370074    -0.60900
H1711       H  0.34567329  0.21908890  0.76827646     0.43100
H1712       H  0.31650657  0.09584454  0.86182586     0.43100
C1713       C  0.33640680  0.17123374  0.59755510    -0.06000
C1714       C  0.35071788  0.13941846  0.58666945    -0.33400
C1715       C  0.35641111  0.13383304  0.55563011     0.35900
C1716       C  0.34704277  0.15998466  0.53493217    -0.06300
C1717       C  0.33144388  0.19127863  0.54572854    -0.33300
C1718       C  0.32670861  0.19727552  0.57690228     0.35800
H1719       H  0.35862862  0.11925420  0.60241788     0.16100
O1720       O  0.37135428  0.10289541  0.54581210    -0.60800
H1721       H  0.32408900  0.21166208  0.52998818     0.16100
O1722       O  0.31202766  0.22825059  0.58690757    -0.60900
H1723       H  0.33176248  0.24494382  0.58814500     0.43100
H1724       H  0.35148643  0.08792202  0.53972189     0.43100
C1725       C  0.45508881  0.19991094  0.74556002    -0.06000
C1726       C  0.48457889  0.20968323  0.72837753    -0.33400
C1727       C  0.51783481  0.19704018  0.73559987     0.35900
C1728       C  0.52195970  0.17351595  0.76007473    -0.06300
C1729       C  0.49286628  0.16626365  0.77868317    -0.33300
C1730       C  0.45989095  0.17974478  0.77203350     0.35800
H1731       H  0.48163372  0.22482734  0.70785552     0.16100
O1732       O  0.54574446  0.20649107  0.71751518    -0.60800
H1733       H  0.49554402  0.15010000  0.79864675     0.16100
O1734       O  0.43204832  0.17169978  0.79082456    -0.60900
H1735       H  0.42782776  0.14622673  0.78788277     0.43100
H1736       H  0.55372368  0.22927309  0.72585934     0.43100
C1737       C  0.29830249  0.77341566  0.90921627    -0.06000
C1738       C  0.30235178  0.73878121  0.91952826    -0.33400
C1739       C  0.27556479  0.71392927  0.91592169     0.35900
C1740       C  0.24404895  0.72365193  0.90197221    -0.06300
C1741       C  0.24100165  0.75787259  0.89042592    -0.33300
C1742       C  0.26758681  0.78251228  0.89395277     0.35800
H1743       H  0.32576125  0.73131946  0.93141721     0.16100
O1744       O  0.27988948  0.68084572  0.92736791    -0.60800
H1745       H  0.21767423  0.76584995  0.87865372     0.16100
O1746       O  0.26355954  0.81535510  0.88181842    -0.60900
H1747       H  0.24818073  0.82834376  0.89643309     0.43100
H1748       H  0.29109152  0.66709232  0.91068447     0.43100
C1749       C  0.47690134  0.86776831  0.97545145    -0.06000
C1750       C  0.47335464  0.87029855  0.50694546    -0.33400
C1751       C  0.50241116  0.87168291  0.52582252     0.35900
C1752       C  0.53643171  0.86859886  0.51324785    -0.06300
C1753       C  0.53981118  0.86800528  0.98211363    -0.33300
C1754       C  0.51109179  0.86868904  0.96298801     0.35800
H1755       H  0.44733253  0.87067163  0.51708686     0.16100
O1756       O  0.49712189  0.87388695  0.55657135    -0.60800
H1757       H  0.56590831  0.86700556  0.97211661     0.16100
O1758       O  0.51675419  0.86878726  0.93217737    -0.60900
H1759       H  0.52587310  0.84482405  0.92697159     0.43100
H1760       H  0.49617111  0.89936799  0.56121094     0.43100
C1761       C  0.37678117  0.98146280  0.92832411    -0.06000
C1762       C  0.34529504  0.99949924  0.93475455    -0.33400
C1763       C  0.34430816  0.03620297  0.93827871     0.35900
C1764       C  0.37527398  0.05619692  0.93555334    -0.06300
C1765       C  0.40688269  0.03813327  0.92956129    -0.33300
C1766       C  0.40785048  0.00140685  0.92589399     0.35800
H1767       H  0.32102183  0.98512140  0.93690929     0.16100
O1768       O  0.31279057  0.05205174  0.94485434    -0.60800
H1769       H  0.43116615  0.05252430  0.92756670     0.16100
O1770       O  0.43949971  0.98542878  0.92007167    -0.60900
H1771       H  0.44270617  0.98623814  0.89772290     0.43100
H1772       H  0.30242478  0.05709457  0.92486396     0.43100
C1773       C  0.46689946  0.79406625  0.87606995    -0.06000
C1774       C  0.49485698  0.78629655  0.89522963    -0.33400
C1775       C  0.52848562  0.78048677  0.88323825     0.35900
C1776       C  0.53413520  0.78094035  0.85167442    -0.06300
C1777       C  0.50509073  0.78253773  0.83258250    -0.33300
C1778       C  0.47168500  0.79013107  0.84457703     0.35800
H1779       H  0.49157058  0.78887402  0.91960273     0.16100
O1780       O  0.55620971  0.77912844  0.90249323    -0.60800
H1781       H  0.50891319  0.78268268  0.80819448     0.16100
O1782       O  0.44437075  0.79536204  0.82536116    -0.60900
H1783       H  0.44494352  0.82066221  0.82030446     0.43100
H1784       H  0.56229037  0.75377800  0.90395271     0.43100
C1785       C  0.23835637  0.71724762  0.65412083    -0.06000
C1786       C  0.22779716  0.74775556  0.67001775    -0.33400
C1787       C  0.25206496  0.77233562  0.67975357     0.35900
C1788       C  0.28793052  0.76717323  0.67353143    -0.06300
C1789       C  0.29887584  0.73632047  0.65836857    -0.33300
C1790       C  0.27439109  0.71145448  0.64863017     0.35800
H1791       H  0.20043273  0.75258882  0.67538301     0.16100
O1792       O  0.24023629  0.80195799  0.69462296    -0.60800
H1793       H  0.32629072  0.73231157  0.65268727     0.16100
O1794       O  0.28597697  0.68199120  0.63344350    -0.60900
H1795       H  0.28538639  0.68820693  0.61165632     0.43100
H1796       H  0.24531094  0.79797617  0.71631337     0.43100
C1797       C  0.45236821  0.82218423  0.73334939    -0.06000
C1798       C  0.45750530  0.84606536  0.75741476    -0.33400
C1799       C  0.49046091  0.85188426  0.76940520     0.35900
C1800       C  0.51968572  0.83273138  0.75842807    -0.06300
C1801       C  0.51450620  0.80732788  0.73551693    -0.33300
C1802       C  0.48125328  0.80208418  0.72292859     0.35800
H1803       H  0.43608668  0.86219540  0.76605575     0.16100
O1804       O  0.49391930  0.87774628  0.79093767    -0.60800
H1805       H  0.53625049  0.79134142  0.72737520     0.16100
O1806       O  0.47739729  0.77739097  0.70051060    -0.60900
H1807       H  0.48439688  0.78924771  0.68140385     0.43100
H1808       H  0.48739302  0.86662198  0.81052090     0.43100
C1809       C  0.35650840  0.97765157  0.65961988    -0.06000
C1810       C  0.32436167  0.99505922  0.66458110    -0.33400
C1811       C  0.32303356  0.03124255  0.66996356     0.35900
C1812       C  0.35424084  0.05064988  0.67068533    -0.06300
C1813       C  0.38587481  0.03388123  0.66230750    -0.33300
C1814       C  0.38716829  0.99781538  0.65658674     0.35800
H1815       H  0.30025573  0.98033208  0.66629949     0.16100
O1816       O  0.29134506  0.04670756  0.67658137    -0.60800
H1817       H  0.41015236  0.04841690  0.66153247     0.16100
O1818       O  0.41897935  0.98238352  0.65029173    -0.60900
H1819       H  0.42047880  0.98075564  0.62785062     0.43100
H1820       H  0.28250431  0.05479193  0.65679316     0.43100
C1821       C  0.33020397  0.89473676  0.76526845    -0.06000
C1822       C  0.34852272  0.92128144  0.78043592    -0.33400
C1823       C  0.35372314  0.91978340  0.81156234     0.35900
C1824       C  0.33992978  0.89179102  0.82852773    -0.06300
C1825       C  0.31854615  0.86706115  0.81415327    -0.33300
C1826       C  0.31391380  0.86815050  0.78257413     0.35800
H1827       H  0.36096237  0.94225551  0.76780345     0.16100
O1828       O  0.37408423  0.94487916  0.82489512    -0.60800
H1829       H  0.30755104  0.84547675  0.82699823     0.16100
O1830       O  0.29550618  0.84190211  0.76876341    -0.60900
H1831       H  0.31265612  0.82262311  0.76517566     0.43100
H1832       H  0.35744263  0.96059516  0.83601283     0.43100
C1833       C  0.32751975  0.84920435  0.57962356    -0.06000
C1834       C  0.32655518  0.81793806  0.56286420    -0.33400
C1835       C  0.32714809  0.81854616  0.53121948     0.35900
C1836       C  0.32914708  0.85092493  0.51572082    -0.06300
C1837       C  0.32680767  0.88224917  0.53244162    -0.33300
C1838       C  0.32608616  0.88160645  0.56420010     0.35800
H1839       H  0.32659361  0.79283017  0.57429922     0.16100
O1840       O  0.32651753  0.78724853  0.51562429    -0.60800
H1841       H  0.32806831  0.90731385  0.52099988     0.16100
O1842       O  0.32627341  0.91286036  0.57980680    -0.60900
H1843       H  0.35131181  0.91825117  0.58282180     0.43100
H1844       H  0.35031306  0.77710752  0.51749192     0.43100
C1845       C  0.54391748  0.82210729  0.61676114    -0.06000
C1846       C  0.51508005  0.81217991  0.59953588    -0.33400
C1847       C  0.48108182  0.82242490  0.60825327     0.35900
C1848       C  0.47543244  0.84349189  0.63442148    -0.06300
C1849       C  0.50405468  0.85137894  0.65264292    -0.33300
C1850       C  0.53783973  0.84051287  0.64433670     0.35800
H1851       H  0.51899047  0.79859737  0.57808152     0.16100
O1852       O  0.45386218  0.81318465  0.59007547    -0.60800
H1853       H  0.50033142  0.86576991  0.67373104     0.16100
O1854       O  0.56499550  0.84893797  0.66296356    -0.60900
H1855       H  0.56844232  0.87460170  0.66066582     0.43100
H1856       H  0.44726696  0.78918282  0.59652678     0.43100
loop_ 
_geom_bond_atom_site_label_1 
_geom_bond_atom_site_label_2 
_geom_bond_distance 
_geom_bond_site_symmetry_2 
_ccdc_geom_bond_type 
O1           C16   1.253       .  A
O1           Al9   1.877       .  S
C2           O12   1.269       .  A
C2            O3   1.266       .  A
C2          C893   1.482       .  S
O3           Al5   1.922       .  S
O4            C6   1.252       .  A
O4           Al5   1.858       .  S
Al5          O13   1.899       .  S
Al5          O15   1.948       .  S
Al5          O14   1.757       .  S
C6           O19   1.279       .  A
C6          C869   1.499       .  S
O7           C17   1.266       .  A
O7           Al9   1.916       .  S
O8           C21   1.263       .  A
O8          Al18   1.879       .  S
Al9          O22   1.946       .  S
Al9          O19   2.009       .  S
Al9          O14   1.776       .  S
O10          C17   1.260       .  A
O10         Al18   1.901       .  S
O11          C20   1.268       .  A
O11         Al18   1.920       .  S
O12         Al18   1.924       .  S
O13          C20   1.266       .  A
O14         Al18   1.767       .  S
O15          C16   1.267       .  A
C16         C920   1.486       .  S
C17         C860   1.489       .  S
C20         C881   1.478       .  S
C21          O22   1.277       .  A
C21         C905   1.477       .  S
O23          C38   1.254       .  A
O23         Al31   1.882       .  S
C24          O34   1.263       .  A
C24          O25   1.259       .  A
C24         C896   1.476       .  S
O25         Al27   1.901       .  S
O26          C28   1.270       .  A
O26         Al27   1.927       .  S
Al27         O35   1.938       .  S
Al27         O37   1.924       .  S
Al27         O36   1.783       .  S
C28          O41   1.268       .  A
C28         C809   1.484       .  S
O29          C39   1.254       .  A
O29         Al31   1.897       .  S
O30          C43   1.268       .  A
O30         Al40   1.925       .  S
Al31         O44   1.907       .  S
Al31         O41   1.911       .  S
Al31         O36   1.789       .  S
O32          C39   1.260       .  A
O32         Al40   1.912       .  S
O33          C42   1.259       .  A
O33         Al40   1.898       .  S
O34         Al40   1.908       .  S
O35          C42   1.267       .  A
O36         Al40   1.782       .  S
O37          C38   1.263       .  A
C38        C1836   1.478       .  S
C39         C845   1.476       .  S
C42         C833   1.503       .  S
C43          O44   1.268       .  A
C43         C821   1.481       .  S
O45          C60   1.272       .  A
O45         Al53   1.940       .  S
C46          O56   1.267       .  A
C46          O47   1.262       .  A
C46         C773   1.489       .  S
O47         Al49   1.911       .  S
O48          C50   1.266       .  A
O48         Al49   1.913       .  S
Al49         O57   1.943       .  S
Al49         O59   1.880       .  S
Al49         O58   1.761       .  S
C50          O63   1.268       .  A
C50         C752   1.488       .  S
O51          C61   1.271       .  A
O51         Al53   1.972       .  S
O52          C65   1.272       .  A
O52         Al62   1.961       .  S
Al53         O66   1.893       .  S
Al53         O63   1.920       .  S
Al53         O58   1.775       .  S
O54          C61   1.245       .  A
O54         Al62   1.855       .  S
O55          C64   1.256       .  A
O55         Al62   1.861       .  S
O56         Al62   1.935       .  S
O57          C64   1.270       .  A
O58         Al62   1.751       .  S
O59          C60   1.263       .  A
C60         C785   1.475       .  S
C61         C797   1.476       .  S
C64         C884   1.478       .  S
C65          O66   1.263       .  A
C65         C764   1.487       .  S
O67          C82   1.273       .  A
O67         Al75   1.959       .  S
C68          O78   1.268   1_554  A
C68         O997   1.255   1_554  A
C68         C788   1.459       .  S
O69         C996   1.258       .  A
O69         Al71   1.881       .  S
O70          C72   1.267       .  A
O70         Al71   1.934       .  S
Al71         O79   1.933       .  S
Al71         O81   1.889       .  S
Al71         O80   1.777       .  S
C72          O85   1.263       .  A
C72         C713   1.505       .  S
O73          C83   1.263       .  A
O73         Al75   1.930       .  S
O74          C87   1.270       .  A
O74         Al84   1.931       .  S
Al75         O88   1.907       .  S
Al75         O85   1.921       .  S
Al75         O80   1.785       .  S
O76          C83   1.260       .  A
O76         Al84   1.896       .  S
O77          C86   1.265       .  A
O77         Al84   1.919       .  S
O78       Al1012   1.937       .  S
O79          C86   1.265       .  A
O80         Al84   1.769       .  S
O81          C82   1.261       .  A
C82         C776   1.488       .  S
C83         C737   1.476       .  S
Al84       O1006   1.936       .  S
C86         C836   1.503       .  S
C87          O88   1.267       .  A
C87         C725   1.495       .  S
O89         C104   1.272   1_554  A
O89         Al97   1.948       .  S
C90         O100   1.265       .  A
C90          O91   1.260       .  A
C90         C704   1.471       .  S
O91         Al93   1.897       .  S
O92          C94   1.272       .  A
O92         Al93   1.944       .  S
Al93        O101   1.959       .  S
Al93        O103   1.902       .  S
Al93        O102   1.764       .  S
C94         O107   1.269       .  A
C94         C668   1.501       .  S
O95         C105   1.270       .  A
O95         Al97   1.971       .  S
O96         C109   1.271       .  A
O96        Al106   1.949       .  S
Al97        O110   1.884       .  S
Al97        O107   1.918       .  S
Al97        O102   1.774       .  S
O98         C105   1.248       .  A
O98        Al106   1.865       .  S
O99         C108   1.255       .  A
O99        Al106   1.861       .  S
O100       Al106   1.924       .  S
O101        C108   1.271       .  A
O102       Al106   1.756       .  S
O103        C104   1.265   1_554  A
C104       C1620   1.480       .  S
C105        C917   1.483       .  S
C108        C677   1.484       .  S
C109        O110   1.263       .  A
C109        C824   1.475       .  S
O111        C126   1.274       .  A
O111       Al119   1.954       .  S
C112        O122   1.269       .  A
C112        O113   1.261       .  A
C112        C689   1.486       .  S
O113       Al115   1.898       .  S
O114        C116   1.261       .  A
O114       Al115   1.908       .  S
Al115       O123   1.925       .  S
Al115       O125   1.869       .  S
Al115       O124   1.773       .  S
C116        O129   1.262       .  A
C116        C641   1.482       .  S
O117        C127   1.266       .  A
O117       Al119   1.940       .  S
O118        C131   1.269       .  A
O118       Al128   1.926       .  S
Al119       O132   1.909       .  S
Al119       O129   1.913       .  S
Al119       O124   1.787       .  S
O120        C127   1.258       .  A
O120       Al128   1.885       .  S
O121        C130   1.262       .  A
O121       Al128   1.905       .  S
O122       Al128   1.945       .  S
O123        C130   1.266       .  A
O124       Al128   1.761       .  S
O125        C126   1.260       .  A
C126        C701   1.481       .  S
C127        C848   1.469       .  S
C130        C653   1.492       .  S
C131        O132   1.265       .  A
C131        C872   1.493       .  S
O133        C148   1.262       .  A
O133       Al141   1.909       .  S
C134        O144   1.265       .  A
C134        O135   1.267       .  A
C134       C1545   1.483       .  S
O135       Al137   1.924   1_556  S
O136        C138   1.264       .  A
O136       Al137   1.903       .  S
Al137       O145   1.906       .  S
Al137       O147   1.915       .  S
Al137       O146   1.784       .  S
C138        O151   1.267       .  A
C138        C608   1.489       .  S
O139        C149   1.262       .  A
O139       Al141   1.917       .  S
O140        C153   1.264       .  A
O140       Al150   1.919       .  S
Al141       O154   1.915       .  S
Al141       O151   1.923       .  S
Al141       O146   1.786       .  S
O142        C149   1.262       .  A
O142       Al150   1.912       .  S
O143        C152   1.261       .  A
O143       Al150   1.902       .  S
O144       Al150   1.905   1_556  S
O145        C152   1.259       .  A
O146       Al150   1.776       .  S
O147        C148   1.263       .  A
C148        C629   1.480       .  S
C149        C740   1.482       .  S
C152        C680   1.483       .  S
C153        O154   1.264       .  A
C153        C761   1.484       .  S
O155        C170   1.252       .  A
O155       Al163   1.863       .  S
C156        O166   1.268       .  A
C156        O157   1.267       .  A
C156        C620   1.481       .  S
O157       Al159   1.924       .  S
O158        C160   1.253       .  A
O158       Al159   1.867       .  S
Al159       O167   1.905       .  S
Al159       O169   1.948       .  S
Al159       O168   1.767       .  S
C160        O173   1.273       .  A
C160        C728   1.485       .  S
O161        C171   1.264       .  A
O161       Al163   1.906       .  S
O162        C175   1.271       .  A
O162       Al172   1.913       .  S
Al163       O176   1.929       .  S
Al163       O173   1.980       .  S
Al163       O168   1.772       .  S
O164        C171   1.263       .  A
O164       Al172   1.914       .  S
O165        C174   1.269       .  A
O165       Al172   1.938       .  S
O166       Al172   1.919       .  S
O167        C174   1.266       .  A
O168       Al172   1.768       .  S
O169        C170   1.269       .  A
C170        C800   1.481       .  S
C171        C596   1.489       .  S
C174        C656   1.492       .  S
C175        O176   1.272       .  A
C175        C632   1.482       .  S
O177        C192   1.273       .  A
O177       Al185   1.951       .  S
C178        O188   1.268       .  A
C178        O179   1.256       .  A
C178        C569   1.475       .  S
O179       Al181   1.877       .  S
O180        C182   1.267       .  A
O180       Al181   1.933       .  S
Al181       O189   1.947       .  S
Al181       O191   1.874       .  S
Al181       O190   1.775       .  S
C182        O195   1.264       .  A
C182        C665   1.498       .  S
O183        C193   1.265       .  A
O183       Al185   1.946       .  S
O184        C197   1.272       .  A
O184       Al194   1.941       .  S
Al185       O198   1.908       .  S
Al185       O195   1.917       .  S
Al185       O190   1.788       .  S
O186        C193   1.256       .  A
O186       Al194   1.886       .  S
O187        C196   1.264       .  A
O187       Al194   1.918       .  S
O188       Al194   1.945       .  S
O189        C196   1.269       .  A
O190       Al194   1.769       .  S
O191        C192   1.261       .  A
C192        C557   1.481       .  S
C193        C584   1.475       .  S
C196        C545   1.509       .  S
C197        O198   1.266       .  A
C197        C536   1.499       .  S
O199        C214   1.273       .  A
O199       Al207   1.945       .  S
C200        O210   1.266       .  A
C200        O201   1.262       .  A
C200        C560   1.467       .  S
O201       Al203   1.899       .  S
O202        C204   1.269       .  A
O202       Al203   1.923       .  S
Al203       O211   1.938       .  S
Al203       O213   1.890       .  S
Al203       O212   1.766       .  S
C204        O217   1.266       .  A
C204        C644   1.485       .  S
O205        C215   1.268       .  A
O205       Al207   1.962       .  S
O206        C219   1.270       .  A
O206       Al216   1.947       .  S
Al207       O220   1.870       .  S
Al207       O217   1.905       .  S
Al207       O212   1.772       .  S
O208        C215   1.249       .  A
O208       Al216   1.866       .  S
O209        C218   1.254       .  A
O209       Al216   1.849       .  S
O210       Al216   1.922       .  S
O211        C218   1.266       .  A
O212       Al216   1.750       .  S
O213        C214   1.263       .  A
C214        C572   1.479       .  S
C215        C521   1.482       .  S
C218        C509   1.463       .  S
C219        O220   1.260       .  A
C219        C497   1.467       .  S
O221        C236   1.256       .  A
O221       Al229   1.864       .  S
C222        O232   1.263       .  A
C222        O223   1.268       .  A
C222        C449   1.470       .  S
O223       Al225   1.926       .  S
O224        C226   1.263       .  A
O224       Al225   1.917       .  S
Al225       O233   1.928       .  S
Al225       O235   1.937       .  S
Al225       O234   1.783       .  S
C226        O239   1.263       .  A
C226        C485   1.491       .  S
O227        C237   1.265       .  A
O227       Al229   1.905       .  S
O228        C241   1.268       .  A
O228       Al238   1.925       .  S
Al229       O242   1.909       .  S
Al229       O239   1.933       .  S
Al229       O234   1.780       .  S
O230        C237   1.268       .  A
O230       Al238   1.928       .  S
O231        C240   1.266       .  A
O231       Al238   1.933       .  S
O232       Al238   1.898       .  S
O233        C240   1.265       .  A
O234       Al238   1.779       .  S
O235        C236   1.270       .  A
C236        C473   1.478       .  S
C237        C857   1.492       .  S
C240        C548   1.509       .  S
C241        O242   1.264       .  A
C241        C461   1.481       .  S
O243        C258   1.272       .  A
O243       Al251   1.938       .  S
C244        O254   1.262       .  A
C244        O245   1.267       .  A
C244        C452   1.476       .  S
O245       Al247   1.925       .  S
O246        C248   1.265       .  A
O246       Al247   1.916       .  S
Al247       O255   1.928       .  S
Al247       O257   1.896       .  S
Al247       O256   1.772       .  S
C248        O261   1.266       .  A
C248        C812   1.490       .  S
O249        C259   1.274       .  A
O249       Al251   1.970       .  S
O250        C263   1.263       .  A
O250       Al260   1.934       .  S
Al251       O264   1.904       .  S
Al251       O261   1.920       .  S
Al251       O256   1.771       .  S
O252        C259   1.254       .  A
O252       Al260   1.862       .  S
O253        C262   1.260       .  A
O253       Al260   1.865       .  S
O254       Al260   1.910       .  S
O255        C262   1.266       .  A
O256       Al260   1.759       .  S
O257        C258   1.263       .  A
C258        C464   1.477       .  S
C259        C425   1.483       .  S
C262        C512   1.463       .  S
C263        O264   1.261       .  A
C263        C437   1.481       .  S
O265        C280   1.253       .  A
O265       Al273   1.877       .  S
C266        O276   1.268       .  A
C266        O267   1.266       .  A
C266        C413   1.483       .  S
O267       Al269   1.923       .  S
O268        C270   1.256       .  A
O268       Al269   1.859       .  S
Al269       O277   1.899       .  S
Al269       O279   1.926       .  S
Al269       O278   1.765       .  S
C270        O283   1.280       .  A
C270        C533   1.492       .  S
O271        C281   1.264       .  A
O271       Al273   1.916       .  S
O272        C285   1.263       .  A
O272       Al282   1.882       .  S
Al273       O286   1.947       .  S
Al273       O283   1.996       .  S
Al273       O278   1.776       .  S
O274        C281   1.257       .  A
O274       Al282   1.883       .  S
O275        C284   1.266       .  A
O275       Al282   1.913       .  S
O276       Al282   1.923       .  S
O277        C284   1.265       .  A
O278       Al282   1.768       .  S
O279        C280   1.261       .  A
C280        C524   1.481       .  S
C281        C593   1.479       .  S
C284        C389   1.473       .  S
C285        O286   1.276       .  A
C285        C404   1.478       .  S
O287        C302   1.256       .  A
O287       Al295   1.889       .  S
C288        O298   1.264       .  A
C288        O289   1.262       .  A
C288        C416   1.474       .  S
O289       Al291   1.905       .  S
O290        C292   1.270       .  A
O290       Al291   1.924       .  S
Al291      O1227   1.938       .  S
Al291      O1229   1.929   1_554  S
Al291       O300   1.781       .  S
C292       O1233   1.268       .  A
C292        C605   1.485       .  S
O293        C303   1.255       .  A
O293      Al1223   1.906   1_554  S
O294        C307   1.266       .  A
O294      Al1232   1.911       .  S
Al295       O308   1.892       .  S
Al295       O305   1.914       .  S
Al295      O1221   1.905       .  S
Al295      O1228   1.788       .  S
O296        C303   1.260       .  A
O296       Al304   1.916       .  S
O297        C306   1.259       .  A
O297       Al304   1.900       .  S
O298       Al304   1.907       .  S
O299       C1234   1.265       .  A
O299      Al1219   1.941       .  S
O300       Al304   1.777       .  S
O300      Al1223   1.787   1_554  S
O301        C302   1.266       .  A
O301      Al1219   1.932       .  S
C302        C401   1.480       .  S
C303        C581   1.480       .  S
Al304      O1222   1.916       .  S
O305       C1220   1.269       .  A
C306       O1227   1.265       .  A
C306        C377   1.503       .  S
C307        O308   1.264       .  A
C307        C500   1.468       .  S
O309        C324   1.256       .  A
O309       Al317   1.881       .  S
C310        O320   1.269       .  A
C310        O311   1.268       .  A
C310        C365   1.490       .  S
O311       Al313   1.926       .  S
O312        C314   1.263       .  A
O312       Al313   1.904       .  S
Al313       O321   1.914       .  S
Al313      O1251   1.928       .  S
Al313       O322   1.776       .  S
C314        O327   1.269       .  A
C314        C488   1.490       .  S
O315        C325   1.268       .  A
O315       Al317   1.919       .  S
O316        C329   1.267       .  A
O316       Al326   1.909       .  S
Al317       O330   1.912       .  S
Al317      O1255   1.951       .  S
Al317      O1250   1.789       .  S
O318        C325   1.265       .  A
O318       Al326   1.921       .  S
O319       C1256   1.266       .  A
O319       Al326   1.941       .  S
O320      Al1254   1.929       .  S
O321        C328   1.265       .  A
O322      Al1245   1.786       .  S
O322      Al1254   1.783       .  S
O323        C324   1.265       .  A
O323      Al1241   1.928       .  S
C324        C428   1.486       .  S
C325        C716   1.504       .  S
Al326      O1248   1.925       .  S
Al326      O1250   1.782       .  S
O327      Al1245   1.951       .  S
C328       O1247   1.267       .  A
C328        C380   1.503       .  S
C329        O330   1.266       .  A
C329        C356   1.476       .  S
O331        C346   1.272       .  A
O331       Al339   1.934       .  S
C332        O342   1.265       .  A
C332        O333   1.267       .  A
C332        C368   1.494       .  S
O333       Al335   1.931       .  S
O334        C336   1.264       .  A
O334       Al335   1.908       .  S
Al335       O343   1.936       .  S
Al335       O345   1.895       .  S
Al335       O344   1.766       .  S
C336        O349   1.263       .  A
C336        C749   1.482       .  S
O337        C347   1.271       .  A
O337       Al339   1.950       .  S
O338        C351   1.264       .  A
O338       Al348   1.929       .  S
Al339       O352   1.912       .  S
Al339       O349   1.915       .  S
Al339       O344   1.771       .  S
O340        C347   1.251       .  A
O340       Al348   1.854       .  S
O341        C350   1.258       .  A
O341       Al348   1.873       .  S
O342       Al348   1.925       .  S
O343        C350   1.269       .  A
O344       Al348   1.756       .  S
O345        C346   1.265       .  A
C346        C353   1.475       .  S
C347        C476   1.465       .  S
C350        C392   1.472       .  S
C351        O352   1.264       .  A
C351        C440   1.480       .  S
C353        C354   1.407       .  A
C353        C358   1.406       .  A
C354        C355   1.402       .  A
C354        H359   1.084       .  S
C355        C356   1.408       .  A
C355        O360   1.372       .  S
C356        C357   1.405       .  A
C357        C358   1.395       .  A
C357        H361   1.084       .  S
C358        O362   1.371       .  S
O360        H364   0.991       .  S
O362        H363   0.992       .  S
C365        C366   1.404       .  A
C365        C370   1.410       .  A
C366        C367   1.400       .  A
C366        H371   1.084       .  S
C367        C368   1.413       .  A
C367        O372   1.373       .  S
C368        C369   1.410       .  A
C369        C370   1.411       .  A
C369        H373   1.084       .  S
C370        O374   1.371       .  S
O372        H376   0.992       .  S
O374        H375   0.992       .  S
C377        C382   1.414       .  A
C377       C1306   1.409       .  A
C378        C379   1.407   1_655  A
C378       C1305   1.409       .  A
C378        H383   1.083       .  S
C379       C1308   1.413       .  A
C379        O384   1.371       .  S
C380        C381   1.410       .  A
C380       C1307   1.413       .  A
C381        C382   1.409   1_455  A
C381        H385   1.083       .  S
C382        O386   1.371       .  S
O384        H388   0.993       .  S
O386        H387   0.992   1_554  S
C389        C390   1.405       .  A
C389        C394   1.407       .  A
C390        C391   1.393   1_655  A
C390        H395   1.084       .  S
C391        C392   1.407       .  A
C391        O396   1.372       .  S
C392        C393   1.407       .  A
C393        C394   1.396   1_455  A
C393        H397   1.084       .  S
C394        O398   1.372       .  S
O396        H400   0.991       .  S
O398        H399   0.991       .  S
C401        C402   1.401       .  A
C401        C406   1.415       .  A
C402        C403   1.404       .  A
C402        H407   1.083       .  S
C403        C404   1.415       .  A
C403        O408   1.372       .  S
C404        C405   1.399       .  A
C405        C406   1.396       .  A
C405        H409   1.084       .  S
C406        O410   1.372       .  S
O408        H412   0.991       .  S
O410        H411   0.992       .  S
C413        C414   1.407       .  A
C413        C418   1.413       .  A
C414        C415   1.406       .  A
C414        H419   1.083       .  S
C415        C416   1.409       .  A
C415        O420   1.372       .  S
C416        C417   1.400       .  A
C417        C418   1.395       .  A
C417        H421   1.084       .  S
C418        O422   1.372       .  S
O420        H424   0.992       .  S
O422        H423   0.992       .  S
C425        C426   1.408       .  A
C425        C430   1.408       .  A
C426        C427   1.395       .  A
C426        H431   1.084       .  S
C427        C428   1.409       .  A
C427        O432   1.372       .  S
C428        C429   1.411       .  A
C429        C430   1.404       .  A
C429        H433   1.083       .  S
C430        O434   1.372       .  S
O432        H436   0.990       .  S
O434        H435   0.992       .  S
C437        C438   1.407       .  A
C437        C442   1.408       .  A
C438        C439   1.404       .  A
C438        H443   1.084       .  S
C439        C440   1.408       .  A
C439        O444   1.372       .  S
C440        C441   1.406       .  A
C441        C442   1.400       .  A
C441        H445   1.084       .  S
C442        O446   1.372       .  S
O444        H448   0.992       .  S
O446        H447   0.993       .  S
C449        C450   1.399       .  A
C449        C454   1.408       .  A
C450       C1379   1.397       .  A
C450        H455   1.084       .  S
C451        C452   1.411       .  A
C451       C1378   1.398       .  A
C451        O456   1.374       .  S
C452        C453   1.403       .  A
C453       C1382   1.403       .  A
C453        H457   1.084       .  S
C454       C1381   1.403       .  A
C454        O458   1.371       .  S
O456        H460   0.991       .  S
O458        H459   0.992       .  S
C461        C462   1.407       .  A
C461        C466   1.408       .  A
C462        C463   1.394       .  A
C462        H467   1.084       .  S
C463        C464   1.404       .  A
C463        O468   1.372       .  S
C464        C465   1.409       .  A
C465        C466   1.407       .  A
C465        H469   1.084       .  S
C466        O470   1.371       .  S
O468        H472   0.992       .  S
O470        H471   0.993       .  S
C473        C474   1.404       .  A
C473        C478   1.416       .  A
C474        C475   1.394       .  A
C474        H479   1.084       .  S
C475        C476   1.413       .  A
C475        O480   1.374       .  S
C476        C477   1.398       .  A
C477        C478   1.394       .  A
C477        H481   1.084       .  S
C478        O482   1.372       .  S
O480        H484   0.991       .  S
O482        H483   0.990       .  S
C485        C486   1.408       .  A
C485        C490   1.407       .  A
C486        C487   1.405       .  A
C486        H491   1.082       .  S
C487        C488   1.406       .  A
C487        O492   1.370       .  S
C488        C489   1.411       .  A
C489        C490   1.409       .  A
C489        H493   1.083       .  S
C490        O494   1.371       .  S
O492        H496   0.995       .  S
O494        H495   0.992       .  S
C497        C498   1.403       .  A
C497        C502   1.408       .  A
C498        C499   1.400       .  A
C498        H503   1.084       .  S
C499        C500   1.409       .  A
C499        O504   1.372       .  S
C500        C501   1.402       .  A
C501        C502   1.392       .  A
C501        H505   1.084       .  S
C502        O506   1.372       .  S
O504        H508   0.992       .  S
O506        H507   0.992       .  S
C509        C510   1.404       .  A
C509        C514   1.404       .  A
C510        C511   1.385   1_655  A
C510        H515   1.084       .  S
C511        C512   1.406       .  A
C511        O516   1.373       .  S
C512        C513   1.406       .  A
C513        C514   1.399   1_455  A
C513        H517   1.084       .  S
C514        O518   1.371       .  S
O516        H520   0.992       .  S
O518        H519   0.991       .  S
C521        C522   1.409       .  A
C521        C526   1.408       .  A
C522        C523   1.395       .  A
C522        H527   1.084       .  S
C523        C524   1.409       .  A
C523        O528   1.372       .  S
C524        C525   1.408       .  A
C525        C526   1.401       .  A
C525        H529   1.083       .  S
C526        O530   1.372       .  S
O528        H532   0.992       .  S
O530        H531   0.991       .  S
C533        C534   1.407       .  A
C533        C538   1.414       .  A
C534        C535   1.412       .  A
C534        H539   1.083       .  S
C535        C536   1.418       .  A
C535        O540   1.371       .  S
C536        C537   1.404       .  A
C537        C538   1.399       .  A
C537        H541   1.083       .  S
C538        O542   1.374       .  S
O540        H544   0.992       .  S
O542        H543   0.992       .  S
C545        C546   1.412       .  A
C545        C550   1.414       .  A
C546        C547   1.414   1_655  A
C546        H551   1.083       .  S
C547        C548   1.416       .  A
C547        O552   1.371       .  S
C548        C549   1.409       .  A
C549        C550   1.406   1_455  A
C549        H553   1.083       .  S
C550        O554   1.371       .  S
O552        H556   0.992       .  S
O554        H555   0.992       .  S
C557        C558   1.408       .  A
C557        C562   1.410       .  A
C558        C559   1.397       .  A
C558        H563   1.084       .  S
C559        C560   1.404       .  A
C559        O564   1.373       .  S
C560        C561   1.404       .  A
C561        C562   1.401       .  A
C561        H565   1.084       .  S
C562        O566   1.371       .  S
O564        H568   0.992       .  S
O566        H567   0.992       .  S
C569        C570   1.400       .  A
C569        C574   1.411       .  A
C570       C1499   1.403   1_554  A
C570        H575   1.084       .  S
C571        C572   1.415       .  A
C571       C1498   1.402       .  A
C571        O576   1.372       .  S
C572        C573   1.402       .  A
C573       C1502   1.398       .  A
C573        H577   1.084       .  S
C574       C1501   1.400   1_554  A
C574        O578   1.372       .  S
O576        H580   0.993       .  S
O578        H579   0.992       .  S
C581        C582   1.406       .  A
C581        C586   1.406       .  A
C582        C583   1.399       .  A
C582        H587   1.084       .  S
C583        C584   1.407       .  A
C583        O588   1.372       .  S
C584        C585   1.407       .  A
C585        C586   1.404       .  A
C585        H589   1.083       .  S
C586        O590   1.370       .  S
O588        H592   0.992       .  S
O590        H591   0.990       .  S
C593        C594   1.401       .  A
C593        C598   1.410       .  A
C594        C595   1.394       .  A
C594        H599   1.084       .  S
C595        C596   1.416       .  A
C595        O600   1.372       .  S
C596        C597   1.408       .  A
C597        C598   1.407       .  A
C597        H601   1.083       .  S
C598        O602   1.371       .  S
O600        H604   0.991       .  S
O602        H603   0.992       .  S
C605        C606   1.409       .  A
C605        C610   1.409       .  A
C606        C607   1.409       .  A
C606        H611   1.083       .  S
C607        C608   1.411       .  A
C607        O612   1.371       .  S
C608        C609   1.407       .  A
C609        C610   1.392       .  A
C609        H613   1.083       .  S
C610        O614   1.372       .  S
O612        H616   0.991       .  S
O614        H615   0.992       .  S
C617       C1062   1.479       .  S
C617        C618   1.404       .  A
C617        C622   1.408       .  A
C618        C619   1.395       .  A
C618        H623   1.084       .  S
C619        C620   1.410       .  A
C619        O624   1.372       .  S
C620        C621   1.408       .  A
C621        C622   1.406       .  A
C621        H625   1.083       .  S
C622        O626   1.371       .  S
O624        H628   0.992       .  S
O626        H627   0.992       .  S
C629        C630   1.403       .  A
C629        C634   1.411       .  A
C630        C631   1.395       .  A
C630        H635   1.084       .  S
C631        C632   1.411       .  A
C631        O636   1.372       .  S
C632        C633   1.406       .  A
C633        C634   1.406       .  A
C633        H637   1.083       .  S
C634        O638   1.372       .  S
O636        H640   0.991       .  S
O638        H639   0.992       .  S
C641        C642   1.405       .  A
C641        C646   1.411       .  A
C642        C643   1.406       .  A
C642        H647   1.083       .  S
C643        C644   1.413       .  A
C643        O648   1.371       .  S
C644        C645   1.404       .  A
C645        C646   1.393       .  A
C645        H649   1.083       .  S
C646        O650   1.372       .  S
O648        H652   0.991       .  S
O650        H651   0.994       .  S
C653        C654   1.405       .  A
C653        C658   1.413       .  A
C654        C655   1.398   1_565  A
C654        H659   1.083       .  S
C655        C656   1.414       .  A
C655        O660   1.371       .  S
C656        C657   1.408       .  A
C657        C658   1.406   1_545  A
C657        H661   1.083       .  S
C658        O662   1.372       .  S
O660        H664   0.992       .  S
O662        H663   0.991       .  S
C665        C666   1.406       .  A
C665        C670   1.413       .  A
C666        C667   1.403       .  A
C666        H671   1.083       .  S
C667        C668   1.415       .  A
C667        O672   1.371       .  S
C668        C669   1.410       .  A
C669        C670   1.410       .  A
C669        H673   1.083       .  S
C670        O674   1.371       .  S
O672        H676   0.991       .  S
O674        H675   0.992       .  S
C677        C678   1.408       .  A
C677        C682   1.408       .  A
C678        C679   1.396   1_565  A
C678        H683   1.084       .  S
C679        C680   1.407       .  A
C679        O684   1.372       .  S
C680        C681   1.409       .  A
C681        C682   1.404   1_545  A
C681        H685   1.083       .  S
C682        O686   1.371       .  S
O684        H688   0.994       .  S
O686        H687   0.993       .  S
C689        C690   1.409       .  A
C689        C694   1.409       .  A
C690        C691   1.405       .  A
C690        H695   1.084       .  S
C691        C692   1.406       .  A
C691        O696   1.372       .  S
C692       C1032   1.479       .  S
C692        C693   1.404       .  A
C693        C694   1.402       .  A
C693        H697   1.084       .  S
C694        O698   1.371       .  S
O696        H700   0.992       .  S
O698        H699   0.991       .  S
C701        C702   1.408       .  A
C701        C706   1.408       .  A
C702        C703   1.397       .  A
C702        H707   1.084       .  S
C703        C704   1.403       .  A
C703        O708   1.371       .  S
C704        C705   1.407       .  A
C705        C706   1.403       .  A
C705        H709   1.084       .  S
C706        O710   1.371       .  S
O708        H712   0.992       .  S
O710        H711   0.993       .  S
C713        C714   1.411       .  A
C713        C718   1.413       .  A
C714        C715   1.413       .  A
C714        H719   1.083       .  S
C715        C716   1.415       .  A
C715        O720   1.371       .  S
C716       C1645   1.409       .  A
C717       C1644   1.408   1_556  A
C717       C1646   1.404       .  A
C717        H721   1.083   1_556  S
C718       C1645   1.403       .  A
C718       O1650   1.371       .  S
O720        H724   0.992       .  S
O722       C1646   1.372       .  S
O722        H723   0.992       .  S
C725        C726   1.408       .  A
C725        C730   1.415       .  A
C726        C727   1.399       .  A
C726        H731   1.083       .  S
C727        C728   1.410       .  A
C727        O732   1.374       .  S
C728        C729   1.405       .  A
C729        C730   1.408       .  A
C729        H733   1.083       .  S
C730        O734   1.370       .  S
O732        H736   0.994       .  S
O734        H735   0.992       .  S
C737        C742   1.411       .  A
C737       C1666   1.400       .  A
C738        C739   1.401       .  A
C738       C1665   1.401   1_554  A
C738        H743   1.084       .  S
C739        C740   1.412       .  A
C739        O744   1.371       .  S
C740        C741   1.403   1_554  A
C741       C1670   1.405       .  A
C741        H745   1.084       .  S
C742       C1669   1.403       .  A
C742        O746   1.370       .  S
O744        H748   0.991       .  S
O746        H747   0.991       .  S
C749        C750   1.401       .  A
C749        C754   1.411       .  A
C750        C751   1.390       .  A
C750        H755   1.084       .  S
C751        C752   1.414       .  A
C751        O756   1.372       .  S
C752        C753   1.409       .  A
C753        C754   1.409       .  A
C753        H757   1.083       .  S
C754        O758   1.371       .  S
O756        H760   0.992       .  S
O758        H759   0.992       .  S
C761        C762   1.405       .  A
C761        C766   1.412       .  A
C762        C763   1.406       .  A
C762        H767   1.084       .  S
C763        C764   1.411       .  A
C763        O768   1.369       .  S
C764        C765   1.405       .  A
C765        C766   1.400       .  A
C765        H769   1.084       .  S
C766        O770   1.372       .  S
O768        H772   0.993       .  S
O770        H771   0.991       .  S
C773        C774   1.403       .  A
C773        C778   1.415       .  A
C774        C775   1.404       .  A
C774        H779   1.084       .  S
C775        C776   1.413       .  A
C775        O780   1.372       .  S
C776        C777   1.403       .  A
C777        C778   1.407       .  A
C777        H781   1.083       .  S
C778        O782   1.371       .  S
O780        H784   0.992       .  S
O782        H783   0.992       .  S
C785        C786   1.409       .  A
C785        C790   1.409       .  A
C786        C787   1.397       .  A
C786        H791   1.084       .  S
C787        C788   1.400       .  A
C787        O792   1.372       .  S
C788        C789   1.401       .  A
C789        C790   1.398       .  A
C789        H793   1.084       .  S
C790        O794   1.372       .  S
O792        H796   0.993       .  S
O794        H795   0.992       .  S
C797        C798   1.400       .  A
C797        C802   1.415       .  A
C798        C799   1.400       .  A
C798        H803   1.084       .  S
C799        C800   1.417       .  A
C799        O804   1.372       .  S
C800        C801   1.400       .  A
C801        C802   1.395       .  A
C801        H805   1.084       .  S
C802        O806   1.375       .  S
O804        H808   0.993       .  S
O806        H807   0.993       .  S
C809        C810   1.407       .  A
C809        C814   1.408       .  A
C810        C811   1.409       .  A
C810        H815   1.083       .  S
C811        C812   1.412       .  A
C811        O816   1.371       .  S
C812        C813   1.407       .  A
C813        C814   1.399       .  A
C813        H817   1.084       .  S
C814        O818   1.373       .  S
O816        H820   0.991       .  S
O818        H819   0.993       .  S
C821        C826   1.411       .  A
C821       C1750   1.404       .  A
C822        C823   1.401       .  A
C822       C1749   1.405   1_554  A
C822        H827   1.084       .  S
C823        C824   1.409       .  A
C823        O828   1.370       .  S
C824       C1753   1.403   1_554  A
C825        C826   1.400       .  A
C825       C1752   1.404       .  A
C825        H829   1.084       .  S
C826        O830   1.372       .  S
O828        H832   0.991       .  S
O830        H831   0.996       .  S
C833        C834   1.406       .  A
C833        C838   1.417       .  A
C834        C835   1.406   1_565  A
C834        H839   1.083       .  S
C835        C836   1.416       .  A
C835        O840   1.371       .  S
C836        C837   1.407       .  A
C837        C838   1.408   1_545  A
C837        H841   1.083       .  S
C838        O842   1.372       .  S
O840        H844   0.992       .  S
O842        H843   0.992       .  S
C845        C846   1.407       .  A
C845        C850   1.405       .  A
C846        C847   1.398       .  A
C846        H851   1.084       .  S
C847        C848   1.405       .  A
C847        O852   1.372       .  S
C848        C849   1.407       .  A
C849        C850   1.401       .  A
C849        H853   1.083       .  S
C850        O854   1.372       .  S
O852        H856   0.994       .  S
O854        H855   0.989       .  S
C857        C858   1.406       .  A
C857        C862   1.414       .  A
C858        C859   1.397       .  A
C858        H863   1.083       .  S
C859        C860   1.413       .  A
C859        O864   1.372       .  S
C860        C861   1.406       .  A
C861        C862   1.407       .  A
C861        H865   1.083       .  S
C862        O866   1.371       .  S
O864        H868   0.992       .  S
O866        H867   0.991       .  S
C869        C870   1.412       .  A
C869        C874   1.410       .  A
C870        C871   1.393       .  A
C870        H875   1.084       .  S
C871        C872   1.407       .  A
C871        O876   1.373       .  S
C872        C873   1.413       .  A
C873        C874   1.415       .  A
C873        H877   1.083       .  S
C874        O878   1.372       .  S
O876        H880   0.990       .  S
O878        H879   0.991       .  S
C881        C882   1.408       .  A
C881        C886   1.408       .  A
C882        C883   1.397   1_565  A
C882        H887   1.083       .  S
C883        C884   1.407       .  A
C883        O888   1.371       .  S
C884        C885   1.408       .  A
C885        C886   1.395   1_545  A
C885        H889   1.084       .  S
C886        O890   1.372       .  S
O888        H892   0.992       .  S
O890        H891   0.992       .  S
C893        C894   1.406       .  A
C893        C898   1.411       .  A
C894        C895   1.395       .  A
C894        H899   1.084       .  S
C895        C896   1.406       .  A
C895        O900   1.372       .  S
C896        C897   1.405       .  A
C897        C898   1.406       .  A
C897        H901   1.084       .  S
C898        O902   1.372       .  S
O900        H904   0.993       .  S
O902        H903   0.993       .  S
C905        C906   1.397       .  A
C905        C910   1.416       .  A
C906        C907   1.394       .  A
C906        H911   1.084       .  S
C907        C908   1.415       .  A
C907        O912   1.373       .  S
C908        C966   1.479   1_554  S
C908        C909   1.402       .  A
C909        C910   1.403       .  A
C909        H913   1.084       .  S
C910        O914   1.372       .  S
O912        H916   0.992       .  S
O914        H915   0.992       .  S
C917        C918   1.403       .  A
C917        C922   1.414       .  A
C918        C919   1.403       .  A
C918        H923   1.084       .  S
C919        C920   1.416       .  A
C919        O924   1.371       .  S
C920        C921   1.403       .  A
C921        C922   1.398       .  A
C921        H925   1.084       .  S
C922        O926   1.374       .  S
O924        H928   0.992       .  S
O926        H927   0.992       .  S
O929        C944   1.253       .  A
O929       Al937   1.877       .  S
C930        O940   1.268       .  A
C930        O931   1.265       .  A
C930       C1821   1.484       .  S
O931       Al933   1.918       .  S
O932        C934   1.253       .  A
O932       Al933   1.859       .  S
Al933       O941   1.894       .  S
Al933       O943   1.939       .  S
Al933       O942   1.759       .  S
C934        O947   1.279       .  A
C934       C1797   1.494       .  S
O935        C945   1.263       .  A
O935       Al937   1.904       .  S
O936        C949   1.264       .  A
O936       Al946   1.879       .  S
Al937       O950   1.945       .  S
Al937       O947   1.998       .  S
Al937       O942   1.775       .  S
O938        C945   1.260       .  A
O938       Al946   1.898       .  S
O939        C948   1.270       .  A
O939       Al946   1.932       .  S
O940       Al946   1.928       .  S
O941        C948   1.265       .  A
O942       Al946   1.768       .  S
O943        C944   1.265       .  A
C944       C1848   1.483       .  S
C945       C1788   1.477       .  S
C948       C1809   1.480       .  S
C949        O950   1.276       .  A
C949       C1833   1.477       .  S
O951        C966   1.254       .  A
O951       Al959   1.881       .  S
C952        O962   1.263       .  A
C952        O953   1.261       .  A
C952       C1824   1.477       .  S
O953       Al955   1.905       .  S
O954        C956   1.270       .  A
O954       Al955   1.927       .  S
Al955       O963   1.931       .  S
Al955       O965   1.928       .  S
Al955       O964   1.782       .  S
C956        O969   1.268       .  A
C956       C1737   1.483       .  S
O957        C967   1.254       .  A
O957       Al959   1.899       .  S
O958        C971   1.268       .  A
O958       Al968   1.922       .  S
Al959       O972   1.899       .  S
Al959       O969   1.910       .  S
Al959       O964   1.787       .  S
O960        C967   1.259       .  A
O960       Al968   1.913       .  S
O961        C970   1.259       .  A
O961       Al968   1.903       .  S
O962       Al968   1.903       .  S
O963        C970   1.265       .  A
O964       Al968   1.779       .  S
O965        C966   1.264       .  A
C967       C1773   1.476       .  S
C970       C1761   1.502       .  S
C971        O972   1.266       .  A
C971       C1749   1.476       .  S
O973        C988   1.274       .  A
O973       Al981   1.950       .  S
C974        O984   1.267       .  A
C974        O975   1.262       .  A
C974       C1701   1.480       .  S
O975       Al977   1.903       .  S
O976        C978   1.266       .  A
O976       Al977   1.917       .  S
Al977       O985   1.942       .  S
Al977       O987   1.877       .  S
Al977       O986   1.762       .  S
C978        O991   1.268       .  A
C978       C1680   1.492       .  S
O979        C989   1.271       .  A
O979       Al981   1.975       .  S
O980        C993   1.272       .  A
O980       Al990   1.961       .  S
Al981       O994   1.883       .  S
Al981       O991   1.923       .  S
Al981       O986   1.774       .  S
O982        C989   1.245       .  A
O982       Al990   1.857       .  S
O983        C992   1.257       .  A
O983       Al990   1.868       .  S
O984       Al990   1.936       .  S
O985        C992   1.269       .  A
O986       Al990   1.753       .  S
O987        C988   1.263       .  A
C988       C1713   1.470       .  S
C989       C1725   1.479       .  S
C992       C1812   1.481       .  S
C993        O994   1.261       .  A
C993       C1692   1.483       .  S
O995       C1010   1.275       .  A
O995      Al1003   1.962       .  S
C996       O1006   1.268       .  A
C996       C1716   1.472       .  S
O997       Al999   1.868       .  S
O998       C1000   1.268       .  A
O998       Al999   1.934       .  S
Al999      O1007   1.940       .  S
Al999      O1009   1.876       .  S
Al999      O1008   1.777       .  S
C1000      O1013   1.264       .  A
C1000      C1641   1.503       .  S
O1001      C1011   1.265       .  A
O1001     Al1003   1.946       .  S
O1002      C1015   1.272       .  A
O1002     Al1012   1.934       .  S
Al1003     O1016   1.901       .  S
Al1003     O1013   1.922       .  S
Al1003     O1008   1.784       .  S
O1004      C1011   1.258       .  A
O1004     Al1012   1.893       .  S
O1005      C1014   1.263       .  A
O1005     Al1012   1.910       .  S
O1007      C1014   1.267       .  A
O1008     Al1012   1.765       .  S
O1009      C1010   1.260       .  A
C1010      C1704   1.489       .  S
C1011      C1665   1.482       .  S
C1014      C1764   1.502       .  S
C1015      O1016   1.266       .  A
C1015      C1653   1.493       .  S
O1017      C1032   1.271       .  A
O1017     Al1025   1.945       .  S
C1018      O1028   1.264       .  A
C1018      O1019   1.260       .  A
C1018      C1632   1.474       .  S
O1019     Al1021   1.897       .  S
O1020      C1022   1.274       .  A
O1020     Al1021   1.946       .  S
Al1021     O1029   1.968       .  S
Al1021     O1031   1.904       .  S
Al1021     O1030   1.764       .  S
C1022      O1035   1.269       .  A
C1022      C1596   1.499       .  S
O1023      C1033   1.270       .  A
O1023     Al1025   1.974       .  S
O1024      C1037   1.272       .  A
O1024     Al1034   1.952       .  S
Al1025     O1038   1.891       .  S
Al1025     O1035   1.915       .  S
Al1025     O1030   1.774       .  S
O1026      C1033   1.246       .  A
O1026     Al1034   1.863       .  S
O1027      C1036   1.253       .  A
O1027     Al1034   1.847       .  S
O1028     Al1034   1.921       .  S
O1029      C1036   1.273       .  A
O1030     Al1034   1.752       .  S
O1031      C1032   1.266       .  A
C1033      C1845   1.483       .  S
C1036      C1605   1.485       .  S
C1037      O1038   1.264       .  A
C1037      C1752   1.479       .  S
O1039      C1054   1.275       .  A
O1039     Al1047   1.960       .  S
C1040      O1050   1.269       .  A
C1040      O1041   1.261       .  A
C1040      C1617   1.483       .  S
O1041     Al1043   1.895       .  S
O1042      C1044   1.261       .  A
O1042     Al1043   1.907       .  S
Al1043     O1051   1.927       .  S
Al1043     O1053   1.860       .  S
Al1043     O1052   1.774       .  S
C1044      O1057   1.262       .  A
C1044      C1569   1.486       .  S
O1045      C1055   1.267       .  A
O1045     Al1047   1.941       .  S
O1046      C1059   1.268       .  A
O1046     Al1056   1.924       .  S
Al1047     O1060   1.907       .  S
Al1047     O1057   1.916       .  S
Al1047     O1052   1.786       .  S
O1048      C1055   1.259       .  A
O1048     Al1056   1.886       .  S
O1049      C1058   1.262       .  A
O1049     Al1056   1.905       .  S
O1050     Al1056   1.945       .  S
O1051      C1058   1.265       .  A
O1052     Al1056   1.761       .  S
O1053      C1054   1.258       .  A
C1054      C1629   1.475       .  S
C1055      C1776   1.472       .  S
C1058      C1581   1.491       .  S
C1059      O1060   1.265       .  A
C1059      C1800   1.492       .  S
O1061      C1076   1.263       .  A
O1061     Al1069   1.904       .  S
C1062      O1072   1.266       .  A
C1062      O1063   1.266       .  A
O1063     Al1065   1.914       .  S
O1064      C1066   1.263       .  A
O1064     Al1065   1.902       .  S
Al1065     O1073   1.898       .  S
Al1065     O1075   1.907       .  S
Al1065     O1074   1.781       .  S
C1066      O1079   1.267       .  A
C1066      C1536   1.492       .  S
O1067      C1077   1.261       .  A
O1067     Al1069   1.908       .  S
O1068      C1081   1.263       .  A
O1068     Al1078   1.917       .  S
Al1069     O1082   1.914       .  S
Al1069     O1079   1.927       .  S
Al1069     O1074   1.785       .  S
O1070      C1077   1.263       .  A
O1070     Al1078   1.909       .  S
O1071      C1080   1.262       .  A
O1071     Al1078   1.906       .  S
O1072     Al1078   1.911       .  S
O1073      C1080   1.257       .  A
O1074     Al1078   1.775       .  S
O1075      C1076   1.262       .  A
C1076      C1557   1.474       .  S
C1077      C1668   1.476       .  S
C1080      C1608   1.484       .  S
C1081      O1082   1.264       .  A
C1081      C1689   1.483       .  S
O1083      C1098   1.251       .  A
O1083     Al1091   1.865       .  S
C1084      O1094   1.268       .  A
C1084      O1085   1.268       .  A
C1084      C1548   1.485       .  S
O1085     Al1087   1.925       .  S
O1086      C1088   1.252       .  A
O1086     Al1087   1.860       .  S
Al1087     O1095   1.898       .  S
Al1087     O1097   1.949       .  S
Al1087     O1096   1.761       .  S
C1088      O1101   1.274       .  A
C1088      C1656   1.484       .  S
O1089      C1099   1.264       .  A
O1089     Al1091   1.905       .  S
O1090      C1103   1.270       .  A
O1090     Al1100   1.906       .  S
Al1091     O1104   1.926       .  S
Al1091     O1101   1.982       .  S
Al1091     O1096   1.772       .  S
O1092      C1099   1.264       .  A
O1092     Al1100   1.912       .  S
O1093      C1102   1.271       .  A
O1093     Al1100   1.950       .  S
O1094     Al1100   1.922       .  S
O1095      C1102   1.265       .  A
O1096     Al1100   1.768       .  S
O1097      C1098   1.269       .  A
C1098      C1728   1.482       .  S
C1099      C1524   1.489       .  S
C1102      C1584   1.492       .  S
C1103      O1104   1.272       .  A
C1103      C1560   1.475       .  S
O1105      C1120   1.274       .  A
O1105     Al1113   1.950       .  S
C1106      O1116   1.269       .  A
C1106      O1107   1.258       .  A
C1106      C1497   1.470       .  S
O1107     Al1109   1.878       .  S
O1108      C1110   1.265       .  A
O1108     Al1109   1.928       .  S
Al1109     O1117   1.940       .  S
Al1109     O1119   1.869       .  S
Al1109     O1118   1.774       .  S
C1110      O1123   1.264       .  A
C1110      C1593   1.498       .  S
O1111      C1121   1.267       .  A
O1111     Al1113   1.948       .  S
O1112      C1125   1.272       .  A
O1112     Al1122   1.947       .  S
Al1113     O1126   1.908       .  S
Al1113     O1123   1.918       .  S
Al1113     O1118   1.783       .  S
O1114      C1121   1.255       .  A
O1114     Al1122   1.877       .  S
O1115      C1124   1.265       .  A
O1115     Al1122   1.919       .  S
O1116     Al1122   1.946       .  S
O1117      C1124   1.268       .  A
O1118     Al1122   1.768       .  S
O1119      C1120   1.262       .  A
C1120      C1485   1.475       .  S
C1121      C1512   1.473       .  S
C1124      C1473   1.504       .  S
C1125      O1126   1.265       .  A
C1125      C1464   1.503       .  S
O1127      C1142   1.273       .  A
O1127     Al1135   1.947       .  S
C1128      O1138   1.264       .  A
C1128      O1129   1.262       .  A
C1128      C1488   1.468       .  S
O1129     Al1131   1.902       .  S
O1130      C1132   1.270       .  A
O1130     Al1131   1.923       .  S
Al1131     O1139   1.934       .  S
Al1131     O1141   1.893       .  S
Al1131     O1140   1.763       .  S
C1132      O1145   1.266       .  A
C1132      C1572   1.486       .  S
O1133      C1143   1.267       .  A
O1133     Al1135   1.968       .  S
O1134      C1147   1.271       .  A
O1134     Al1144   1.949       .  S
Al1135     O1148   1.875       .  S
Al1135     O1145   1.909       .  S
Al1135     O1140   1.778       .  S
O1136      C1143   1.248       .  A
O1136     Al1144   1.867       .  S
O1137      C1146   1.256       .  A
O1137     Al1144   1.855       .  S
O1138     Al1144   1.915       .  S
O1139      C1146   1.267       .  A
O1140     Al1144   1.749       .  S
O1141      C1142   1.263       .  A
C1142      C1500   1.478       .  S
C1143      C1449   1.483       .  S
C1146      C1437   1.466       .  S
C1147      O1148   1.262       .  A
C1147      C1425   1.469       .  S
O1149      C1164   1.258       .  A
O1149     Al1157   1.871       .  S
C1150      O1160   1.261       .  A
C1150      O1151   1.269       .  A
C1150      C1377   1.472       .  S
O1151     Al1153   1.934       .  S
O1152      C1154   1.262       .  A
O1152     Al1153   1.913       .  S
Al1153     O1161   1.919       .  S
Al1153     O1163   1.936       .  S
Al1153     O1162   1.778       .  S
C1154      O1167   1.262       .  A
C1154      C1413   1.489       .  S
O1155      C1165   1.265       .  A
O1155     Al1157   1.906       .  S
O1156      C1169   1.267       .  A
O1156     Al1166   1.919       .  S
Al1157     O1170   1.908       .  S
Al1157     O1167   1.932       .  S
Al1157     O1162   1.781       .  S
O1158      C1165   1.267       .  A
O1158     Al1166   1.917       .  S
O1159      C1168   1.266       .  A
O1159     Al1166   1.932       .  S
O1160     Al1166   1.893       .  S
O1161      C1168   1.263       .  A
O1162     Al1166   1.779       .  S
O1163      C1164   1.270       .  A
C1164      C1401   1.480       .  S
C1165      C1785   1.485       .  S
C1168      C1476   1.504       .  S
C1169      O1170   1.264       .  A
C1169      C1389   1.478       .  S
O1171      C1186   1.272       .  A
O1171     Al1179   1.934       .  S
C1172      O1182   1.262       .  A
C1172      O1173   1.267       .  A
C1172      C1380   1.475       .  S
O1173     Al1175   1.923       .  S
O1174      C1176   1.264       .  A
O1174     Al1175   1.912       .  S
Al1175     O1183   1.938       .  S
Al1175     O1185   1.891       .  S
Al1175     O1184   1.772       .  S
C1176      O1189   1.266       .  A
C1176      C1740   1.491       .  S
O1177      C1187   1.274       .  A
O1177     Al1179   1.968       .  S
O1178      C1191   1.262       .  A
O1178     Al1188   1.926       .  S
Al1179     O1192   1.909       .  S
Al1179     O1189   1.921       .  S
Al1179     O1184   1.771       .  S
O1180      C1187   1.255       .  A
O1180     Al1188   1.861       .  S
O1181      C1190   1.259       .  A
O1181     Al1188   1.867       .  S
O1182     Al1188   1.910       .  S
O1183      C1190   1.268       .  A
O1184     Al1188   1.759       .  S
O1185      C1186   1.264       .  A
C1186      C1392   1.474       .  S
C1187      C1353   1.482       .  S
C1190      C1440   1.467       .  S
C1191      O1192   1.261       .  A
C1191      C1365   1.481       .  S
O1193      C1208   1.252       .  A
O1193     Al1201   1.879       .  S
C1194      O1204   1.267       .  A
C1194      O1195   1.267       .  A
C1194      C1341   1.482       .  S
O1195     Al1197   1.927       .  S
O1196      C1198   1.257       .  A
O1196     Al1197   1.860       .  S
Al1197     O1205   1.888       .  S
Al1197     O1207   1.923       .  S
Al1197     O1206   1.762       .  S
C1198      O1211   1.282       .  A
C1198      C1461   1.494       .  S
O1199      C1209   1.264       .  A
O1199     Al1201   1.916       .  S
O1200      C1213   1.261       .  A
O1200     Al1210   1.875       .  S
Al1201     O1214   1.948       .  S
Al1201     O1211   2.002       .  S
Al1201     O1206   1.774       .  S
O1202      C1209   1.257       .  A
O1202     Al1210   1.876       .  S
O1203      C1212   1.265       .  A
O1203     Al1210   1.912       .  S
O1204     Al1210   1.915       .  S
O1205      C1212   1.263       .  A
O1206     Al1210   1.770       .  S
O1207      C1208   1.261       .  A
C1208      C1452   1.480       .  S
C1209      C1521   1.477       .  S
C1212      C1317   1.469       .  S
C1213      O1214   1.276       .  A
C1213      C1332   1.475       .  S
O1215      C1230   1.256       .  A
O1215     Al1223   1.887       .  S
C1216      O1226   1.263       .  A
C1216      O1217   1.263       .  A
C1216      C1344   1.475       .  S
O1217     Al1219   1.907       .  S
O1218      C1220   1.270       .  A
O1218     Al1219   1.928       .  S
Al1219     O1228   1.780       .  S
C1220      C1533   1.491       .  S
O1221      C1231   1.256       .  A
O1222      C1235   1.268   1_554  A
Al1223     O1236   1.889       .  S
Al1223     O1233   1.907   1_556  S
O1224      C1231   1.260       .  A
O1224     Al1232   1.916       .  S
O1225      C1234   1.259       .  A
O1225     Al1232   1.901       .  S
O1226     Al1232   1.904       .  S
O1228     Al1232   1.780       .  S
O1229      C1230   1.266       .  A
C1230      C1329   1.477       .  S
C1231      C1509   1.478       .  S
C1234      C1305   1.503       .  S
C1235      O1236   1.264       .  A
C1235      C1428   1.469       .  S
O1237      C1252   1.258       .  A
O1237     Al1245   1.885   1_556  S
C1238      O1248   1.269       .  A
C1238      O1239   1.269       .  A
C1238      C1293   1.487       .  S
O1239     Al1241   1.928       .  S
O1240      C1242   1.262       .  A
O1240     Al1241   1.901       .  S
Al1241     O1249   1.917       .  S
Al1241     O1250   1.774       .  S
C1242      O1255   1.269       .  A
C1242      C1416   1.490       .  S
O1243      C1253   1.266       .  A
O1243     Al1245   1.913       .  S
O1244      C1257   1.266       .  A
O1244     Al1254   1.910   1_556  S
Al1245     O1258   1.920   1_554  S
O1246      C1253   1.266       .  A
O1246     Al1254   1.929       .  S
O1247     Al1254   1.942       .  S
O1249      C1256   1.264       .  A
O1251      C1252   1.265   1_554  A
C1252      C1356   1.487       .  S
C1253      C1644   1.503       .  S
C1256      C1308   1.504       .  S
C1257      O1258   1.267       .  A
C1257      C1284   1.480       .  S
O1259      C1274   1.271       .  A
O1259     Al1267   1.934       .  S
C1260      O1270   1.265       .  A
C1260      O1261   1.265       .  A
C1260      C1296   1.491       .  S
O1261     Al1263   1.923       .  S
O1262      C1264   1.264       .  A
O1262     Al1263   1.909       .  S
Al1263     O1271   1.926       .  S
Al1263     O1273   1.899       .  S
Al1263     O1272   1.769       .  S
C1264      O1277   1.263       .  A
C1264      C1677   1.480       .  S
O1265      C1275   1.271       .  A
O1265     Al1267   1.951       .  S
O1266      C1279   1.265       .  A
O1266     Al1276   1.932       .  S
Al1267     O1280   1.908       .  S
Al1267     O1277   1.913       .  S
Al1267     O1272   1.771       .  S
O1268      C1275   1.253       .  A
O1268     Al1276   1.859       .  S
O1269      C1278   1.259       .  A
O1269     Al1276   1.871       .  S
O1270     Al1276   1.928       .  S
O1271      C1278   1.267       .  A
O1272     Al1276   1.760       .  S
O1273      C1274   1.264       .  A
C1274      C1281   1.478       .  S
C1275      C1404   1.469       .  S
C1278      C1320   1.469       .  S
C1279      O1280   1.263       .  A
C1279      C1368   1.479       .  S
C1281      C1282   1.407       .  A
C1281      C1286   1.406       .  A
C1282      C1283   1.405       .  A
C1282      H1287   1.084       .  S
C1283      C1284   1.410       .  A
C1283      O1288   1.372       .  S
C1284      C1285   1.405       .  A
C1285      C1286   1.396       .  A
C1285      H1289   1.084       .  S
C1286      O1290   1.371       .  S
O1288      H1292   0.992       .  S
O1290      H1291   0.993       .  S
C1293      C1294   1.404       .  A
C1293      C1298   1.409       .  A
C1294      C1295   1.400       .  A
C1294      H1299   1.084       .  S
C1295      C1296   1.412       .  A
C1295      O1300   1.373       .  S
C1296      C1297   1.410       .  A
C1297      C1298   1.409       .  A
C1297      H1301   1.084       .  S
C1298      O1302   1.371       .  S
O1300      H1304   0.992       .  S
O1302      H1303   0.992       .  S
C1305      C1310   1.414       .  A
C1306      C1307   1.406   1_655  A
C1306      H1311   1.083       .  S
C1307      O1312   1.371       .  S
C1308      C1309   1.411       .  A
C1309      C1310   1.409   1_455  A
C1309      H1313   1.083       .  S
C1310      O1314   1.371       .  S
O1312      H1316   0.993       .  S
O1314      H1315   0.992       .  S
C1317      C1318   1.404       .  A
C1317      C1322   1.407       .  A
C1318      C1319   1.393   1_655  A
C1318      H1323   1.084       .  S
C1319      C1320   1.408       .  A
C1319      O1324   1.371       .  S
C1320      C1321   1.405       .  A
C1321      C1322   1.392   1_455  A
C1321      H1325   1.084       .  S
C1322      O1326   1.372       .  S
O1324      H1328   0.991       .  S
O1326      H1327   0.992       .  S
C1329      C1330   1.401       .  A
C1329      C1334   1.415       .  A
C1330      C1331   1.402       .  A
C1330      H1335   1.084       .  S
C1331      C1332   1.415       .  A
C1331      O1336   1.372       .  S
C1332      C1333   1.397       .  A
C1333      C1334   1.395       .  A
C1333      H1337   1.084       .  S
C1334      O1338   1.372       .  S
O1336      H1340   0.992       .  S
O1338      H1339   0.992       .  S
C1341      C1342   1.407       .  A
C1341      C1346   1.412       .  A
C1342      C1343   1.405       .  A
C1342      H1347   1.083       .  S
C1343      C1344   1.409       .  A
C1343      O1348   1.372       .  S
C1344      C1345   1.401       .  A
C1345      C1346   1.395       .  A
C1345      H1349   1.084       .  S
C1346      O1350   1.372       .  S
O1348      H1352   0.993       .  S
O1350      H1351   0.993       .  S
C1353      C1354   1.408       .  A
C1353      C1358   1.407       .  A
C1354      C1355   1.397       .  A
C1354      H1359   1.084       .  S
C1355      C1356   1.411       .  A
C1355      O1360   1.372   1_556  S
C1356      C1357   1.410       .  A
C1357      C1358   1.403       .  A
C1357      H1361   1.083       .  S
C1358      O1362   1.372       .  S
O1360      H1364   0.989       .  S
O1362      H1363   0.991       .  S
C1365      C1366   1.407       .  A
C1365      C1370   1.408       .  A
C1366      C1367   1.401       .  A
C1366      H1371   1.084       .  S
C1367      C1368   1.407       .  A
C1367      O1372   1.372       .  S
C1368      C1369   1.406       .  A
C1369      C1370   1.402       .  A
C1369      H1373   1.083       .  S
C1370      O1374   1.372       .  S
O1372      H1376   0.992       .  S
O1374      H1375   0.992       .  S
C1377      C1378   1.400       .  A
C1377      C1382   1.409       .  A
C1378      H1383   1.084       .  S
C1379      C1380   1.411   1_554  A
C1379      O1384   1.373   1_554  S
C1380      C1381   1.404   1_556  A
C1381      H1385   1.084   1_554  S
C1382      O1386   1.371       .  S
O1384      H1388   0.992       .  S
O1386      H1387   0.992       .  S
C1389      C1390   1.407       .  A
C1389      C1394   1.408       .  A
C1390      C1391   1.393       .  A
C1390      H1395   1.084       .  S
C1391      C1392   1.405       .  A
C1391      O1396   1.372       .  S
C1392      C1393   1.408       .  A
C1393      C1394   1.404       .  A
C1393      H1397   1.084       .  S
C1394      O1398   1.371       .  S
O1396      H1400   0.992       .  S
O1398      H1399   0.993       .  S
C1401      C1402   1.404       .  A
C1401      C1406   1.416       .  A
C1402      C1403   1.394       .  A
C1402      H1407   1.083       .  S
C1403      C1404   1.412       .  A
C1403      O1408   1.374       .  S
C1404      C1405   1.400       .  A
C1405      C1406   1.397       .  A
C1405      H1409   1.084       .  S
C1406      O1410   1.372       .  S
O1408      H1412   0.990       .  S
O1410      H1411   0.990       .  S
C1413      C1414   1.408       .  A
C1413      C1418   1.406       .  A
C1414      C1415   1.404       .  A
C1414      H1419   1.082       .  S
C1415      C1416   1.406       .  A
C1415      O1420   1.370       .  S
C1416      C1417   1.410       .  A
C1417      C1418   1.409       .  A
C1417      H1421   1.082       .  S
C1418      O1422   1.371       .  S
O1420      H1424   0.995       .  S
O1422      H1423   0.991       .  S
C1425      C1426   1.403       .  A
C1425      C1430   1.408       .  A
C1426      C1427   1.400       .  A
C1426      H1431   1.084       .  S
C1427      C1428   1.409       .  A
C1427      O1432   1.372       .  S
C1428      C1429   1.402       .  A
C1429      C1430   1.392       .  A
C1429      H1433   1.084   1_556  S
C1430      O1434   1.371       .  S
O1432      H1436   0.992       .  S
O1434      H1435   0.992       .  S
C1437      C1438   1.403       .  A
C1437      C1442   1.405       .  A
C1438      C1439   1.388   1_655  A
C1438      H1443   1.084       .  S
C1439      C1440   1.408       .  A
C1439      O1444   1.373       .  S
C1440      C1441   1.406       .  A
C1441      C1442   1.399   1_455  A
C1441      H1445   1.083       .  S
C1442      O1446   1.371       .  S
O1444      H1448   0.992       .  S
O1446      H1447   0.991       .  S
C1449      C1450   1.408       .  A
C1449      C1454   1.408       .  A
C1450      C1451   1.391       .  A
C1450      H1455   1.084       .  S
C1451      C1452   1.408       .  A
C1451      O1456   1.372       .  S
C1452      C1453   1.410       .  A
C1453      C1454   1.403       .  A
C1453      H1457   1.083       .  S
C1454      O1458   1.372       .  S
O1456      H1460   0.992       .  S
O1458      H1459   0.992       .  S
C1461      C1462   1.407       .  A
C1461      C1466   1.413       .  A
C1462      C1463   1.413       .  A
C1462      H1467   1.083       .  S
C1463      C1464   1.419       .  A
C1463      O1468   1.371       .  S
C1464      C1465   1.405       .  A
C1465      C1466   1.402       .  A
C1465      H1469   1.083       .  S
C1466      O1470   1.374       .  S
O1468      H1472   0.992       .  S
O1470      H1471   0.992       .  S
C1473      C1474   1.410       .  A
C1473      C1478   1.415       .  A
C1474      C1475   1.412   1_655  A
C1474      H1479   1.083       .  S
C1475      C1476   1.415       .  A
C1475      O1480   1.372       .  S
C1476      C1477   1.407       .  A
C1477      C1478   1.403   1_455  A
C1477      H1481   1.083       .  S
C1478      O1482   1.371       .  S
O1480      H1484   0.992       .  S
O1482      H1483   0.992       .  S
C1485      C1486   1.405       .  A
C1485      C1490   1.409       .  A
C1486      C1487   1.395       .  A
C1486      H1491   1.084       .  S
C1487      C1488   1.405       .  A
C1487      O1492   1.373       .  S
C1488      C1489   1.404       .  A
C1489      C1490   1.401       .  A
C1489      H1493   1.084       .  S
C1490      O1494   1.371       .  S
O1492      H1496   0.993       .  S
O1494      H1495   0.993       .  S
C1497      C1498   1.399       .  A
C1497      C1502   1.410       .  A
C1498      H1503   1.084       .  S
C1499      C1500   1.414       .  A
C1499      O1504   1.372       .  S
C1500      C1501   1.401       .  A
C1501      H1505   1.084       .  S
C1502      O1506   1.373       .  S
O1504      H1508   0.993       .  S
O1506      H1507   0.993       .  S
C1509      C1510   1.406       .  A
C1509      C1514   1.406       .  A
C1510      C1511   1.398       .  A
C1510      H1515   1.084       .  S
C1511      C1512   1.408       .  A
C1511      O1516   1.373       .  S
C1512      C1513   1.407       .  A
C1513      C1514   1.404       .  A
C1513      H1517   1.083       .  S
C1514      O1518   1.370       .  S
O1516      H1520   0.992       .  S
O1518      H1519   0.991       .  S
C1521      C1522   1.401       .  A
C1521      C1526   1.410       .  A
C1522      C1523   1.391       .  A
C1522      H1527   1.084       .  S
C1523      C1524   1.416       .  A
C1523      O1528   1.372       .  S
C1524      C1525   1.409       .  A
C1525      C1526   1.408       .  A
C1525      H1529   1.083       .  S
C1526      O1530   1.371       .  S
O1528      H1532   0.991       .  S
O1530      H1531   0.992       .  S
C1533      C1534   1.410       .  A
C1533      C1538   1.410       .  A
C1534      C1535   1.412       .  A
C1534      H1539   1.083       .  S
C1535      C1536   1.412       .  A
C1535      O1540   1.371       .  S
C1536      C1537   1.407       .  A
C1537      C1538   1.393       .  A
C1537      H1541   1.083       .  S
C1538      O1542   1.372       .  S
O1540      H1544   0.991       .  S
O1542      H1543   0.991       .  S
C1545      C1546   1.404       .  A
C1545      C1550   1.409       .  A
C1546      C1547   1.394       .  A
C1546      H1551   1.084       .  S
C1547      C1548   1.410       .  A
C1547      O1552   1.372       .  S
C1548      C1549   1.409       .  A
C1549      C1550   1.410       .  A
C1549      H1553   1.083       .  S
C1550      O1554   1.371       .  S
O1552      H1556   0.992       .  S
O1554      H1555   0.992       .  S
C1557      C1558   1.402       .  A
C1557      C1562   1.410       .  A
C1558      C1559   1.392       .  A
C1558      H1563   1.084       .  S
C1559      C1560   1.409       .  A
C1559      O1564   1.372       .  S
C1560      C1561   1.405       .  A
C1561      C1562   1.404       .  A
C1561      H1565   1.084       .  S
C1562      O1566   1.372       .  S
O1564      H1568   0.991       .  S
O1566      H1567   0.992       .  S
C1569      C1570   1.407       .  A
C1569      C1574   1.412       .  A
C1570      C1571   1.408       .  A
C1570      H1575   1.083       .  S
C1571      C1572   1.413       .  A
C1571      O1576   1.371       .  S
C1572      C1573   1.403       .  A
C1573      C1574   1.392       .  A
C1573      H1577   1.083       .  S
C1574      O1578   1.372       .  S
O1576      H1580   0.991       .  S
O1578      H1579   0.993       .  S
C1581      C1582   1.408       .  A
C1581      C1586   1.412       .  A
C1582      C1583   1.403   1_565  A
C1582      H1587   1.083       .  S
C1583      C1584   1.412       .  A
C1583      O1588   1.371       .  S
C1584      C1585   1.407       .  A
C1585      C1586   1.402   1_545  A
C1585      H1589   1.083       .  S
C1586      O1590   1.371       .  S
O1588      H1592   0.991       .  S
O1590      H1591   0.991       .  S
C1593      C1594   1.407       .  A
C1593      C1598   1.413       .  A
C1594      C1595   1.403       .  A
C1594      H1599   1.083       .  S
C1595      C1596   1.414       .  A
C1595      O1600   1.372       .  S
C1596      C1597   1.409       .  A
C1597      C1598   1.409       .  A
C1597      H1601   1.083       .  S
C1598      O1602   1.371       .  S
O1600      H1604   0.991       .  S
O1602      H1603   0.993       .  S
C1605      C1606   1.411       .  A
C1605      C1610   1.406       .  A
C1606      C1607   1.394   1_565  A
C1606      H1611   1.083       .  S
C1607      C1608   1.406       .  A
C1607      O1612   1.372       .  S
C1608      C1609   1.412       .  A
C1609      C1610   1.402   1_545  A
C1609      H1613   1.083       .  S
C1610      O1614   1.371       .  S
O1612      H1616   0.994       .  S
O1614      H1615   0.992       .  S
C1617      C1618   1.407       .  A
C1617      C1622   1.409       .  A
C1618      C1619   1.404       .  A
C1618      H1623   1.084       .  S
C1619      C1620   1.406       .  A
C1619      O1624   1.371       .  S
C1620      C1621   1.406       .  A
C1621      C1622   1.403       .  A
C1621      H1625   1.084       .  S
C1622      O1626   1.372       .  S
O1624      H1628   0.992       .  S
O1626      H1627   0.991       .  S
C1629      C1630   1.406       .  A
C1629      C1634   1.405       .  A
C1630      C1631   1.395       .  A
C1630      H1635   1.084       .  S
C1631      C1632   1.405       .  A
C1631      O1636   1.372       .  S
C1632      C1633   1.409       .  A
C1633      C1634   1.404       .  A
C1633      H1637   1.084       .  S
C1634      O1638   1.371       .  S
O1636      H1640   0.992       .  S
O1638      H1639   0.992       .  S
C1641      C1642   1.409       .  A
C1641      C1646   1.414       .  A
C1642      C1643   1.412       .  A
C1642      H1647   1.083       .  S
C1643      C1644   1.415   1_556  A
C1643      O1648   1.371       .  S
C1645      H1649   1.083       .  S
O1648      H1652   0.992       .  S
O1650      H1651   0.992       .  S
C1653      C1654   1.406       .  A
C1653      C1658   1.416       .  A
C1654      C1655   1.397       .  A
C1654      H1659   1.083       .  S
C1655      C1656   1.412       .  A
C1655      O1660   1.374       .  S
C1656      C1657   1.405       .  A
C1657      C1658   1.408       .  A
C1657      H1661   1.083       .  S
C1658      O1662   1.371       .  S
O1660      H1664   0.994       .  S
O1662      H1663   0.992       .  S
C1665      C1670   1.413       .  A
C1666      C1667   1.399       .  A
C1666      H1671   1.084       .  S
C1667      C1668   1.412       .  A
C1667      O1672   1.371       .  S
C1668      C1669   1.401       .  A
C1669      H1673   1.084       .  S
C1670      O1674   1.369       .  S
O1672      H1676   0.992       .  S
O1674      H1675   0.992       .  S
C1677      C1678   1.400       .  A
C1677      C1682   1.409       .  A
C1678      C1679   1.392       .  A
C1678      H1683   1.084       .  S
C1679      C1680   1.415       .  A
C1679      O1684   1.372       .  S
C1680      C1681   1.410       .  A
C1681      C1682   1.410       .  A
C1681      H1685   1.083       .  S
C1682      O1686   1.371       .  S
O1684      H1688   0.992       .  S
O1686      H1687   0.992       .  S
C1689      C1690   1.405       .  A
C1689      C1694   1.411       .  A
C1690      C1691   1.405       .  A
C1690      H1695   1.084       .  S
C1691      C1692   1.410       .  A
C1691      O1696   1.370       .  S
C1692      C1693   1.405       .  A
C1693      C1694   1.399       .  A
C1693      H1697   1.084       .  S
C1694      O1698   1.372       .  S
O1696      H1700   0.992       .  S
O1698      H1699   0.991       .  S
C1701      C1702   1.399       .  A
C1701      C1706   1.412       .  A
C1702      C1703   1.402       .  A
C1702      H1707   1.084       .  S
C1703      C1704   1.418       .  A
C1703      O1708   1.372       .  S
C1704      C1705   1.403       .  A
C1705      C1706   1.403       .  A
C1705      H1709   1.083       .  S
C1706      O1710   1.372       .  S
O1708      H1712   0.992       .  S
O1710      H1711   0.994       .  S
C1713      C1714   1.406       .  A
C1713      C1718   1.404       .  A
C1714      C1715   1.397       .  A
C1714      H1719   1.084       .  S
C1715      C1716   1.405       .  A
C1715      O1720   1.372       .  S
C1716      C1717   1.407       .  A
C1717      C1718   1.401       .  A
C1717      H1721   1.084       .  S
C1718      O1722   1.371       .  S
O1720      H1724   0.992       .  S
O1722      H1723   0.991       .  S
C1725      C1726   1.401       .  A
C1725      C1730   1.416       .  A
C1726      C1727   1.401       .  A
C1726      H1731   1.084       .  S
C1727      C1728   1.418       .  A
C1727      O1732   1.372       .  S
C1728      C1729   1.400       .  A
C1729      C1730   1.396       .  A
C1729      H1733   1.084       .  S
C1730      O1734   1.374       .  S
O1732      H1736   0.992       .  S
O1734      H1735   0.993       .  S
C1737      C1738   1.407       .  A
C1737      C1742   1.407       .  A
C1738      C1739   1.409       .  A
C1738      H1743   1.083       .  S
C1739      C1740   1.412       .  A
C1739      O1744   1.371       .  S
C1740      C1741   1.407       .  A
C1741      C1742   1.397       .  A
C1741      H1745   1.084       .  S
C1742      O1746   1.373       .  S
O1744      H1748   0.991       .  S
O1746      H1747   0.993       .  S
C1749      C1754   1.410       .  A
C1750      C1751   1.402       .  A
C1750      H1755   1.084       .  S
C1751      C1752   1.409       .  A
C1751      O1756   1.370       .  S
C1753      C1754   1.397       .  A
C1753      H1757   1.084       .  S
C1754      O1758   1.372       .  S
O1756      H1760   0.991       .  S
O1758      H1759   1.000       .  S
C1761      C1762   1.407       .  A
C1761      C1766   1.416   1_565  A
C1762      C1763   1.406   1_565  A
C1762      H1767   1.083       .  S
C1763      C1764   1.415       .  A
C1763      O1768   1.371       .  S
C1764      C1765   1.408       .  A
C1765      C1766   1.408       .  A
C1765      H1769   1.083       .  S
C1766      O1770   1.372   1_545  S
O1768      H1772   0.993       .  S
O1770      H1771   0.992       .  S
C1773      C1774   1.406       .  A
C1773      C1778   1.405       .  A
C1774      C1775   1.398       .  A
C1774      H1779   1.084       .  S
C1775      C1776   1.405       .  A
C1775      O1780   1.372       .  S
C1776      C1777   1.407       .  A
C1777      C1778   1.402       .  A
C1777      H1781   1.083       .  S
C1778      O1782   1.372       .  S
O1780      H1784   0.995       .  S
O1782      H1783   0.991       .  S
C1785      C1786   1.407       .  A
C1785      C1790   1.411       .  A
C1786      C1787   1.393       .  A
C1786      H1791   1.083       .  S
C1787      C1788   1.407       .  A
C1787      O1792   1.372       .  S
C1788      C1789   1.407       .  A
C1789      C1790   1.406       .  A
C1789      H1793   1.084       .  S
C1790      O1794   1.371       .  S
O1792      H1796   0.992       .  S
O1794      H1795   0.992       .  S
C1797      C1798   1.411       .  A
C1797      C1802   1.410       .  A
C1798      C1799   1.394       .  A
C1798      H1803   1.084       .  S
C1799      C1800   1.409       .  A
C1799      O1804   1.373       .  S
C1800      C1801   1.412       .  A
C1801      C1802   1.412       .  A
C1801      H1805   1.083       .  S
C1802      O1806   1.371       .  S
O1804      H1808   0.993       .  S
O1806      H1807   0.992       .  S
C1809      C1810   1.407       .  A
C1809      C1814   1.410       .  A
C1810      C1811   1.398   1_565  A
C1810      H1815   1.083       .  S
C1811      C1812   1.408       .  A
C1811      O1816   1.371       .  S
C1812      C1813   1.408       .  A
C1813      C1814   1.396   1_545  A
C1813      H1817   1.084       .  S
C1814      O1818   1.372       .  S
O1816      H1820   0.992       .  S
O1818      H1819   0.992       .  S
C1821      C1822   1.406       .  A
C1821      C1826   1.412       .  A
C1822      C1823   1.392       .  A
C1822      H1827   1.084       .  S
C1823      C1824   1.406       .  A
C1823      O1828   1.372       .  S
C1824      C1825   1.406       .  A
C1825      C1826   1.408       .  A
C1825      H1829   1.084       .  S
C1826      O1830   1.372       .  S
O1828      H1832   0.993       .  S
O1830      H1831   0.992       .  S
C1833      C1834   1.399       .  A
C1833      C1838   1.414       .  A
C1834      C1835   1.396       .  A
C1834      H1839   1.084       .  S
C1835      C1836   1.415       .  A
C1835      O1840   1.373       .  S
C1836      C1837   1.401       .  A
C1837      C1838   1.401       .  A
C1837      H1841   1.083       .  S
C1838      O1842   1.372       .  S
O1840      H1844   0.992       .  S
O1842      H1843   0.992       .  S
C1845      C1846   1.403       .  A
C1845      C1850   1.415       .  A
C1846      C1847   1.402       .  A
C1846      H1851   1.083       .  S
C1847      C1848   1.415       .  A
C1847      O1852   1.372       .  S
C1848      C1849   1.403       .  A
C1849      C1850   1.397       .  A
C1849      H1853   1.084       .  S
C1850      O1854   1.374       .  S
O1852      H1856   0.992       .  S
O1854      H1855   0.993       .  S
