geometry optimzed in LAMMPS
_audit_creation_date              2020-12-01 
_audit_creation_method            'lammps2cif' 
_symmetry_space_group_name_H-M    'P1' 
_symmetry_Int_Tables_number       1 
_symmetry_cell_setting            triclinic 
loop_ 
_symmetry_equiv_pos_as_xyz 
  x,y,z 
_cell_length_a                    55.58505162 
_cell_length_b                    55.599044991296246 
_cell_length_c                    56.28675941271058 
_cell_angle_alpha                 89.87803260249825 
_cell_angle_beta                  89.9568178165133 
_cell_angle_gamma                 121.59458908887986 
loop_ 
_atom_site_label 
_atom_site_type_symbol 
_atom_site_fract_x 
_atom_site_fract_y 
_atom_site_fract_z 
_atom_site_charge 
O1          O  0.64714407  0.19347953  0.19173142    -0.81800
C2          C  0.53847803  0.13236552  0.23248548     0.97600
O3          O  0.55485458  0.15881863  0.23269291    -0.70900
O4          O  0.60298835  0.16997693  0.25116747    -0.74500
Al5        Al  0.59327585  0.18218475  0.22324227     1.49000
C6          C  0.62573007  0.17034297  0.25352679     0.92800
O7          O  0.60764340  0.11853190  0.21471957    -0.80700
O8          O  0.58339767  0.14407619  0.15944733    -0.74300
Al9        Al  0.62579572  0.15591147  0.20331467     1.90100
O10         O  0.57017208  0.10132726  0.19202490    -0.73400
O11         O  0.55056484  0.15728409  0.18240419    -0.73200
O12         O  0.54131713  0.11747640  0.21716207    -0.78900
O13         O  0.58388984  0.19734713  0.19743160    -0.77100
O14         O  0.59426486  0.15666073  0.20519738    -1.13200
O15         O  0.63129572  0.21122473  0.21782179    -0.72400
C16         C  0.64930397  0.21430688  0.20258074     0.98300
C17         C  0.58573694  0.09769348  0.20612176     0.94700
Al18       Al  0.56378380  0.13196135  0.18896270     1.55600
O19         O  0.63780187  0.16778863  0.23547890    -0.77000
C20         C  0.56266902  0.18384242  0.18420843     0.98900
C21         C  0.60629500  0.14555301  0.15439717     0.93800
O22         O  0.62105127  0.14424089  0.17079334    -0.82300
O23         O  0.81356130  0.32937473  0.46930185    -0.81800
C24         C  0.74857350  0.25682626  0.39440273     0.97600
O25         O  0.75077269  0.24862904  0.41493039    -0.70900
O26         O  0.80340264  0.26897778  0.42875506    -0.74500
Al27       Al  0.77283428  0.26939621  0.44267492     1.49000
C28         C  0.82926952  0.28753059  0.43007811     0.92800
O29         O  0.82717745  0.34084530  0.40363524    -0.80700
O30         O  0.75991295  0.33359415  0.43481152    -0.74300
Al31       Al  0.81819053  0.33333258  0.43636286     1.90100
O32         O  0.78746192  0.33722250  0.39348155    -0.73400
O33         O  0.72625246  0.27973486  0.42860257    -0.73200
O34         O  0.75776728  0.28252385  0.39046275    -0.78900
O35         O  0.74047214  0.26525015  0.45846006    -0.77100
O36         O  0.78374072  0.30349294  0.43092110    -1.13200
O37         O  0.79232504  0.28318308  0.47243901    -0.72400
C38         C  0.80560065  0.30754476  0.48158345     0.98300
C39         C  0.81292086  0.34559244  0.38917887     0.94700
Al40       Al  0.75990277  0.30789223  0.41334862     1.55600
O41         O  0.83738556  0.31275715  0.43540197    -0.77000
C42         C  0.72128903  0.26688129  0.44814349     0.98900
C43         C  0.78147855  0.35662295  0.44072359     0.93800
O44         O  0.80603148  0.36050485  0.43867708    -0.82300
O45         O  0.63519788  0.50202140  0.47619851    -0.81800
C46         C  0.70238984  0.51310392  0.39706923     0.97600
O47         O  0.71182410  0.52277322  0.41762785    -0.70900
O48         O  0.69359436  0.55407038  0.43422051    -0.74500
Al49       Al  0.69330934  0.52260349  0.44684457     1.49000
C50         C  0.67509089  0.56054722  0.43533807     0.92800
O51         O  0.61943430  0.50228887  0.41126195    -0.80700
O52         O  0.62902734  0.44332534  0.44074178    -0.74300
Al53       Al  0.62933777  0.50192867  0.44351044     1.90100
O54         O  0.62164202  0.46598818  0.40044875    -0.73400
O55         O  0.68244718  0.46576363  0.43036595    -0.73200
O56         O  0.67658472  0.49464164  0.39415522    -0.78900
O57         O  0.69807939  0.49390597  0.46090648    -0.77100
O58         O  0.65856219  0.49831915  0.43628887    -1.13200
O59         O  0.68155631  0.52725024  0.47788573    -0.72400
C60         C  0.65764890  0.51509270  0.48793125     0.98300
C61         C  0.61320994  0.48274571  0.39674392     0.94700
Al62       Al  0.65287455  0.46987306  0.41802650     1.55600
O63         O  0.65008935  0.54252056  0.44159703    -0.77000
C64         C  0.69673673  0.47395978  0.44917204     0.98900
C65         C  0.60665976  0.44110915  0.44846224     0.93800
O66         O  0.60266162  0.46157480  0.44709361    -0.82300
O67         O  0.47485502  0.31338155  0.19310241    -0.81800
C68         C  0.52732934  0.41653947  0.24386359     0.97600
O69         O  0.53516735  0.39887009  0.24338764    -0.70900
O70         O  0.49611048  0.34771911  0.25609428    -0.74500
Al71       Al  0.51962774  0.36229274  0.22916471     1.49000
C72         C  0.47217845  0.32535977  0.25664179     0.92800
O73         O  0.44180125  0.35107918  0.22145999    -0.80700
O74         O  0.49642730  0.38176311  0.16848629    -0.74300
Al75       Al  0.45997587  0.33368818  0.20758238     1.90100
O76         O  0.46544019  0.39054411  0.20121200    -0.73400
O77         O  0.54212625  0.41169131  0.19419249    -0.73200
O78         O  0.50983904  0.41546518  0.22897833    -0.78900
O79         O  0.54637100  0.37635958  0.20438329    -0.77100
O80         O  0.49406855  0.36434870  0.21214025    -1.13200
O81         O  0.50940646  0.32553558  0.21833534    -0.72400
C82         C  0.49389016  0.31005104  0.20158525     0.98300
C83         C  0.44477144  0.37398469  0.21426586     0.94700
Al84       Al  0.50262005  0.39713303  0.19913523     1.55600
O85         O  0.45724300  0.31657159  0.23809309    -0.77000
C86         C  0.55666916  0.40034420  0.19501967     0.98900
C87         C  0.47431269  0.35996251  0.16126545     0.93800
O88         O  0.45542032  0.34358601  0.17587996    -0.82300
O89         O  0.45580598  0.14142131  0.46971122    -0.81800
C90         C  0.44929662  0.20679895  0.39614405     0.97600
O91         O  0.44072313  0.20568132  0.41727732    -0.70900
O92         O  0.40729641  0.15391064  0.43194562    -0.74500
Al93       Al  0.44001998  0.18425386  0.44481850     1.49000
C94         C  0.39919661  0.12819579  0.43050094     0.92800
O95         O  0.45570876  0.13090167  0.40320018    -0.80700
O96         O  0.51688033  0.19835894  0.43529619    -0.74300
Al97       Al  0.45631378  0.13889687  0.43640913     1.90100
O98         O  0.49278027  0.17127022  0.39386063    -0.73400
O99         O  0.49714458  0.23117601  0.42842564    -0.73200
O100        O  0.46642295  0.19902235  0.39131291    -0.78900
O101        O  0.47048597  0.21680321  0.45991356    -0.77100
O102        O  0.46212315  0.17338968  0.43179234    -1.13200
O103        O  0.43473532  0.16513495  0.47433420    -0.72400
C104        C  0.44411998  0.15064435  0.48283705     0.98300
C105        C  0.47562242  0.14579226  0.38903791     0.94700
Al106      Al  0.49082085  0.19776031  0.41378355     1.55600
O107        O  0.41594047  0.11966806  0.43421459    -0.77000
C108        C  0.49110889  0.23617113  0.44856601     0.98900
C109        C  0.51740378  0.17716909  0.44254713     0.93800
O110        O  0.49629013  0.15223938  0.43992088    -0.82300
O111        O  0.78365593  0.50510385  0.19172628    -0.81800
C112        C  0.82796521  0.45054100  0.24490752     0.97600
O113        O  0.80270222  0.44456914  0.24451632    -0.70900
O114        O  0.79804484  0.48729592  0.25576776    -0.74500
Al115      Al  0.78433807  0.46162647  0.23012603     1.49000
C116        C  0.80343078  0.51228180  0.25525279     0.92800
O117        O  0.85692597  0.53632074  0.21779872    -0.80700
O118        O  0.82583183  0.47876332  0.16725355    -0.74300
Al119      Al  0.82000395  0.51911702  0.20518286     1.90100
O120        O  0.86860841  0.50921458  0.19921752    -0.73400
O121        O  0.80538128  0.43430796  0.19546190    -0.73200
O122        O  0.84525867  0.46604598  0.22898292    -0.78900
O123        O  0.76725349  0.43303101  0.20685855    -0.77100
O124        O  0.81295289  0.48457969  0.21138913    -1.13200
O125        O  0.75978678  0.47377712  0.21963975    -0.72400
C126        C  0.76065885  0.48822285  0.20196203     0.98300
C127        C  0.87543140  0.53138144  0.21066556     0.94700
Al128      Al  0.83454422  0.47308290  0.19864265     1.55600
O129        O  0.80840397  0.52526881  0.23569101    -0.77000
C130        C  0.77888986  0.42107151  0.19752439     0.98900
C131        C  0.82940862  0.50167973  0.15925162     0.93800
O132        O  0.83306350  0.52087764  0.17340752    -0.82300
O133        O  0.51679700  0.35344700  0.94437311    -0.81800
C134        C  0.44589467  0.24899405  0.90269814     0.97600
O135        O  0.46576867  0.27325988  0.89687674    -0.70900
O136        O  0.50097789  0.32768527  0.89722124    -0.74500
Al137      Al  0.49568411  0.29764929  0.91700387     1.49000
C138        C  0.49001123  0.34248865  0.89590311     0.92800
O139        O  0.43555828  0.31726439  0.94553919    -0.80700
O140        O  0.44466454  0.28342062  0.98083080    -0.74300
Al141      Al  0.47583632  0.33218156  0.94433469     1.90100
O142        O  0.41686809  0.27196725  0.93855461    -0.73400
O143        O  0.47154215  0.25912059  0.96496890    -0.73200
O144        O  0.43892546  0.24287809  0.92424811    -0.78900
O145        O  0.49637722  0.26739733  0.93233303    -0.77100
O146        O  0.47236476  0.29916395  0.93757344    -1.13200
O147        O  0.52800627  0.32215562  0.93484304    -0.72400
C148        C  0.53493108  0.34625931  0.94239184     0.98300
C149        C  0.41463775  0.29336146  0.93977049     0.94700
Al150      Al  0.44524213  0.26712256  0.95107722     1.55600
O151        O  0.47414810  0.34166958  0.91218804    -0.77000
C152        C  0.48963192  0.25715374  0.95302934     0.98900
C153        C  0.46124041  0.30725204  0.98984900     0.93800
O154        O  0.47823947  0.32776031  0.97709425    -0.82300
O155        O  0.64783037  0.51626666  0.67911906    -0.81800
C156        C  0.57289076  0.45187656  0.75246630     0.97600
O157        O  0.56548702  0.45284731  0.73129864    -0.70900
O158        O  0.58453362  0.50350963  0.71429376    -0.74500
Al159      Al  0.58696261  0.47300373  0.70325375     1.49000
C160        C  0.60275476  0.52936623  0.71573979     0.92800
O161        O  0.65611100  0.52838268  0.74522671    -0.80700
O162        O  0.65074454  0.46175829  0.71458164    -0.74300
Al163      Al  0.64992142  0.51990561  0.71218929     1.90100
O164        O  0.65377766  0.48946037  0.75525255    -0.73400
O165        O  0.59652496  0.42699924  0.72142881    -0.73200
O166        O  0.59814717  0.45989726  0.75757919    -0.78900
O167        O  0.58388068  0.44015122  0.68981900    -0.77100
O168        O  0.62035542  0.48501458  0.71689727    -1.13200
O169        O  0.60235544  0.49063685  0.67307298    -0.72400
C170        C  0.62731288  0.50507102  0.66508136     0.98300
C171        C  0.66183436  0.51479221  0.75959217     0.94700
Al172      Al  0.62450297  0.46162489  0.73558466     1.55600
O173        O  0.62869415  0.53842019  0.71290683    -0.77000
C174        C  0.58423593  0.42118558  0.70167838     0.98900
C175        C  0.67329914  0.48343901  0.70768800     0.93800
O176        O  0.67730816  0.50801986  0.71011906    -0.82300
O177        O  0.45234722  0.15520517  0.67257103    -0.81800
C178        C  0.52047091  0.15201848  0.74514177     0.97600
O179        O  0.51826821  0.14225135  0.72438500    -0.70900
O180        O  0.46623250  0.10713759  0.71233998    -0.74500
Al181      Al  0.49515101  0.13947163  0.69751564     1.49000
C182        C  0.44018028  0.09769482  0.71266729     0.92800
O183        O  0.44160136  0.15229553  0.73886687    -0.80700
O184        O  0.50608801  0.21611026  0.70548644    -0.74300
Al185      Al  0.44891333  0.15407660  0.70576093     1.90100
O186        O  0.48123787  0.19109602  0.74754278    -0.73400
O187        O  0.54143134  0.19905144  0.71036041    -0.73200
O188        O  0.51239035  0.16897737  0.74931649    -0.78900
O189        O  0.52611226  0.16945347  0.68085656    -0.77100
O190        O  0.48400051  0.16148520  0.70992629    -1.13200
O191        O  0.47434389  0.13219965  0.66856758    -0.72400
C192        C  0.46114976  0.14291012  0.65972962     0.98300
C193        C  0.45643061  0.17204814  0.75308691     0.94700
Al194      Al  0.50823217  0.19132753  0.72672437     1.55600
O195        O  0.43086282  0.11340455  0.70711063    -0.77000
C196        C  0.54574355  0.19114894  0.69071479     0.98900
C197        C  0.48377029  0.21581207  0.70092125     0.93800
O198        O  0.45969504  0.19347979  0.70351062    -0.82300
O199        O  0.61922790  0.16847711  0.94661881    -0.81800
C200        C  0.72474627  0.22045112  0.89965095     0.97600
O201        O  0.70795432  0.22929140  0.90025767    -0.70900
O202        O  0.65803702  0.19029910  0.88543107    -0.74500
Al203      Al  0.67069539  0.21339328  0.91268790     1.49000
C204        C  0.63601136  0.16619013  0.88413223     0.92800
O205        O  0.65819779  0.13452914  0.92229139    -0.80700
O206        O  0.68721604  0.18943971  0.97489914    -0.74300
Al207      Al  0.64057570  0.15355188  0.93421939     1.90100
O208        O  0.69712889  0.15803825  0.94299248    -0.73400
O209        O  0.71828867  0.23514146  0.94892640    -0.73200
O210        O  0.72302174  0.20262639  0.91461349    -0.78900
O211        O  0.68319136  0.23956086  0.93790867    -0.77100
O212        O  0.67160027  0.18742454  0.93031229    -1.13200
O213        O  0.63321637  0.20311612  0.92110118    -0.72400
C214        C  0.61601851  0.18693722  0.93670966     0.98300
C215        C  0.68038026  0.13686601  0.93060321     0.94700
Al216      Al  0.70374692  0.19553965  0.94432406     1.55600
O217        O  0.62612356  0.15113271  0.90265756    -0.77000
C218        C  0.70676433  0.24958486  0.94790300     0.98900
C219        C  0.66475981  0.16745704  0.98170139     0.93800
O220        O  0.64828479  0.14932476  0.96673808    -0.82300
O221        O  0.81052474  0.33004209  0.66553545    -0.81800
C222        C  0.82090759  0.39838603  0.74320657     0.97600
O223        O  0.83066782  0.40764392  0.72258012    -0.70900
O224        O  0.86114038  0.38812668  0.70665382    -0.74500
Al225      Al  0.83016732  0.38847309  0.69373638     1.49000
C226        C  0.86676784  0.36897517  0.70724568     0.92800
O227        O  0.80766477  0.31443275  0.73067214    -0.80700
O228        O  0.75065596  0.32546136  0.70004098    -0.74300
Al229      Al  0.80858910  0.32427999  0.69830061     1.90100
O230        O  0.77203826  0.31806351  0.74070171    -0.73400
O231        O  0.77373302  0.37896999  0.70982271    -0.73200
O232        O  0.80167778  0.37289915  0.74646584    -0.78900
O233        O  0.80183645  0.39338268  0.67922695    -0.77100
O234        O  0.80546233  0.35402813  0.70471827    -1.13200
O235        O  0.83475388  0.37632284  0.66324171    -0.72400
C236        C  0.82397674  0.35239324  0.65363778     0.98300
C237        C  0.78833854  0.30931470  0.74508412     0.94700
Al238      Al  0.77697673  0.34918886  0.72267632     1.55600
O239        O  0.84875887  0.34397225  0.70135159    -0.77000
C240        C  0.78201863  0.39266025  0.69068665     0.98900
C241        C  0.74856468  0.30344980  0.69159856     0.93800
O242        O  0.76833657  0.29852624  0.69374888    -0.82300
O243        O  0.81913733  0.47759914  0.94887689    -0.81800
C244        C  0.77607322  0.53444850  0.89668759     0.97600
O245        O  0.76860530  0.50881982  0.89529055    -0.70900
O246        O  0.80938885  0.50061017  0.88494152    -0.74500
Al247      Al  0.78180846  0.48663409  0.90925092     1.49000
C248        C  0.83246046  0.50159740  0.88661301     0.92800
O249        O  0.85865926  0.55235388  0.92525666    -0.80700
O250        O  0.79895445  0.52403938  0.97408166    -0.74300
Al251      Al  0.83758415  0.51506554  0.93681896     1.90100
O252        O  0.83402944  0.56766145  0.94325707    -0.73400
O253        O  0.75613571  0.50875661  0.94545049    -0.73200
O254        O  0.79152564  0.54971469  0.91347084    -0.78900
O255        O  0.75185148  0.46998908  0.93123177    -0.77100
O256        O  0.80503179  0.51249418  0.92966089    -1.13200
O257        O  0.78972014  0.45849131  0.91901482    -0.72400
C258        C  0.80130097  0.45604916  0.93744799     0.98300
C259        C  0.85573307  0.57231198  0.93186553     0.94700
Al260      Al  0.79601865  0.53572409  0.94309112     1.55600
O261        O  0.84341438  0.50334311  0.90661694    -0.77000
C262        C  0.74189435  0.48232575  0.94256447     0.98900
C263        C  0.82028507  0.52461274  0.98242909     0.93800
O264        O  0.83941843  0.52713201  0.96875247    -0.82300
O265        O  0.31769181  0.52558207  0.52169399    -0.81800
C266        C  0.21535244  0.46735770  0.57278535     0.97600
O267        O  0.23086578  0.49381777  0.57069409    -0.70900
O268        O  0.28108199  0.50796844  0.58400524    -0.74500
Al269      Al  0.26734817  0.51684290  0.55706665     1.49000
C270        C  0.30347469  0.50764076  0.58494866     0.92800
O271        O  0.28059702  0.45177556  0.54894280    -0.80700
O272        O  0.24936735  0.47343018  0.49559499    -0.74300
Al273      Al  0.29747722  0.48868895  0.53552396     1.90100
O274        O  0.24130239  0.43371430  0.52887287    -0.73400
O275        O  0.21855570  0.48726610  0.52181402    -0.73200
O276        O  0.21572961  0.45113814  0.55727800    -0.78900
O277        O  0.25374477  0.52896173  0.53210575    -0.77100
O278        O  0.26629888  0.48974382  0.53980929    -1.13200
O279        O  0.30409983  0.54570317  0.54749306    -0.72400
C280        C  0.32047865  0.54741993  0.53120421     0.98300
C281        C  0.25776289  0.43046211  0.54199811     0.94700
Al282      Al  0.23384042  0.46347111  0.52681760     1.55600
O283        O  0.31335470  0.50294378  0.56649862    -0.77000
C284        C  0.22996334  0.51375925  0.52263460     0.98900
C285        C  0.27137429  0.47418229  0.48854558     0.93800
O286        O  0.28852886  0.47457394  0.50359039    -0.82300
O287        O  0.12022698  0.48020570  0.80573993    -0.81800
C288        C  0.11896858  0.55099478  0.73393597     0.97600
O289        O  0.10967661  0.54868075  0.75490200    -0.70900
O290        O  0.07464835  0.49655829  0.76726359    -0.74500
Al291      Al  0.10744336  0.52540274  0.78146585     1.49000
C292        C  0.06550696  0.47081467  0.76429555     0.92800
O293        O  0.12199666  0.47151202  0.73924026    -0.80700
O294        O  0.18418552  0.53639544  0.77105226    -0.74300
Al295      Al  0.12157539  0.47874098  0.77226745     1.90100
O296        O  0.15857266  0.51221778  0.72922541    -0.73400
O297        O  0.16695741  0.57177180  0.76748852    -0.73200
O298        O  0.13561113  0.54281952  0.72875974    -0.78900
O299        O  0.13794532  0.55634561  0.79760097    -0.77100
O300        O  0.12912687  0.51404716  0.76821089    -1.13200
O301        O  0.10039338  0.50482593  0.81054486    -0.72400
C302        C  0.10939154  0.49006504  0.81915172     0.98300
C303        C  0.14125052  0.48668146  0.72467352     0.94700
Al304      Al  0.15870213  0.53856020  0.75071238     1.55600
O305        O  0.08110012  0.46099467  0.76874455    -0.77000
C306        C  0.15936594  0.57601501  0.78732919     0.98900
C307        C  0.18327330  0.51433977  0.77786642     0.93800
O308        O  0.16081716  0.49019973  0.77640697    -0.82300
O309        O  0.31271215  0.85454383  0.80561339    -0.81800
C310        C  0.37769244  0.85014470  0.73359865     0.97600
O311        O  0.37992423  0.86795187  0.74872592    -0.70900
O312        O  0.36035179  0.89152122  0.77721990    -0.74500
Al313      Al  0.36315369  0.85847294  0.77972998     1.49000
C314        C  0.34349143  0.89589039  0.76555973     0.92800
O315        O  0.28132313  0.82570119  0.74444896    -0.80700
O316        O  0.28517461  0.78009644  0.76165417    -0.74300
Al317      Al  0.30024512  0.83950791  0.77459848     1.90100
O318        O  0.31044339  0.81782558  0.72501115    -0.73400
O319        O  0.33477766  0.79103658  0.77488281    -0.73200
O320        O  0.35864654  0.82446194  0.73583116    -0.78900
O321        O  0.37351994  0.83043955  0.78407851    -0.77100
O322        O  0.32877592  0.83465018  0.76839691    -1.13200
O323        O  0.34987314  0.85138490  0.81177532    -0.72400
C324        C  0.32993958  0.85379545  0.81969734     0.98300
C325        C  0.29025580  0.82187922  0.72497903     0.94700
Al326      Al  0.32271602  0.80574804  0.75080783     1.55600
O327        O  0.31908355  0.87572882  0.76046110    -0.77000
C328        C  0.35951069  0.80369564  0.78293142     0.98900
C329        C  0.27269055  0.78038669  0.78024840     0.93800
O330        O  0.27871524  0.80341010  0.78973092    -0.82300
O331        O  0.15040462  0.64623756  0.53667732    -0.81800
C332        C  0.19101986  0.74793070  0.58000625     0.97600
O333        O  0.18857320  0.72445360  0.58452664    -0.70900
O334        O  0.16787821  0.66983363  0.58204816    -0.74500
Al335      Al  0.19151400  0.70118051  0.56218714     1.49000
C336        C  0.14211661  0.65737908  0.58713065     0.92800
O337        O  0.10853838  0.68336858  0.54298818    -0.80700
O338        O  0.15540603  0.71625323  0.50077457    -0.74300
Al339      Al  0.13228117  0.66792529  0.54043437     1.90100
O340        O  0.13813683  0.72907683  0.54197566    -0.73400
O341        O  0.20655837  0.74173417  0.51684009    -0.73200
O342        O  0.18920311  0.75507597  0.55892858    -0.78900
O343        O  0.22351327  0.73254854  0.54797819    -0.77100
O344        O  0.16488570  0.70064652  0.54429222    -1.13200
O345        O  0.19575594  0.67790193  0.54060696    -0.72400
C346        C  0.17619029  0.65359685  0.53437668     0.98300
C347        C  0.11355441  0.70819944  0.54486434     0.94700
Al348      Al  0.17162667  0.73274779  0.53077201     1.55600
O349        O  0.12557768  0.66005681  0.57375125    -0.77000
C350        C  0.22713916  0.74416064  0.52810879     0.98900
C351        C  0.14263479  0.69122060  0.49320491     0.93800
O352        O  0.13380844  0.67068387  0.50725800    -0.82300
O353        O  0.48311776  0.66401421  0.80175700    -0.81800
C354        C  0.41036096  0.58905206  0.73164362     0.97600
O355        O  0.41367603  0.58180529  0.75221101    -0.70900
O356        O  0.46579089  0.60059478  0.76545094    -0.74500
Al357      Al  0.43620446  0.60331377  0.77920775     1.49000
C358        C  0.49152892  0.61862094  0.76193063     0.92800
O359        O  0.48817715  0.67299665  0.73524855    -0.80700
O360        O  0.42516552  0.66813136  0.77107294    -0.74300
Al361      Al  0.48285214  0.66620350  0.76857272     1.90100
O362        O  0.44811538  0.66977527  0.72848122    -0.73400
O363        O  0.38938133  0.61426876  0.76593445    -0.73200
O364        O  0.41777908  0.61426548  0.72697453    -0.78900
O365        O  0.40454778  0.60051667  0.79541982    -0.77100
O366        O  0.44734171  0.63684008  0.76591157    -1.13200
O367        O  0.45627097  0.61851914  0.80830151    -0.72400
C368        C  0.47269922  0.64333116  0.81571931     0.98300
C369        C  0.47305987  0.67830332  0.72240010     0.94700
Al370      Al  0.42242779  0.64120746  0.74958394     1.55600
O371        O  0.50051778  0.64454080  0.76463022    -0.77000
C372        C  0.38519578  0.60232634  0.78571326     0.98900
C373        C  0.44755231  0.69074897  0.77662423     0.93800
O374        O  0.47164314  0.69375116  0.77343847    -0.82300
O375        O  0.45046632  0.83866951  0.52654626    -0.81800
C376        C  0.49504212  0.78133786  0.57584414     0.97600
O377        O  0.46980896  0.77544574  0.57597739    -0.70900
O378        O  0.46607012  0.81846407  0.58894162    -0.74500
Al379      Al  0.45175706  0.79360312  0.56288388     1.49000
C380        C  0.47152807  0.84348503  0.58915799     0.92800
O381        O  0.52459040  0.86848536  0.55082526    -0.80700
O382        O  0.49257723  0.81157219  0.50025733    -0.74300
Al383      Al  0.48733880  0.85175187  0.53885786     1.90100
O384        O  0.53606111  0.84171556  0.53168526    -0.73400
O385        O  0.47211402  0.76687828  0.52733111    -0.73200
O386        O  0.51262069  0.79830217  0.56083507    -0.78900
O387        O  0.43419146  0.76603093  0.53876439    -0.77100
O388        O  0.48019210  0.81702509  0.54427975    -1.13200
O389        O  0.42753817  0.80649643  0.55391882    -0.72400
C390        C  0.42785457  0.82209513  0.53750902     0.98300
C391        C  0.54299723  0.86318358  0.54424019     0.94700
Al392      Al  0.50163094  0.80566254  0.53100709     1.55600
O393        O  0.47674046  0.85726549  0.56998380    -0.77000
C394        C  0.44554576  0.75415538  0.52874142     0.98900
C395        C  0.49558906  0.83422385  0.49237722     0.93800
O396        O  0.49919627  0.85346830  0.50653424    -0.82300
O397        O  0.30699165  0.84225085  0.00699545    -0.81800
C398        C  0.23980114  0.77431818  0.08293433     0.97600
O399        O  0.23031937  0.77592233  0.06280894    -0.70900
O400        O  0.24707567  0.82672837  0.04718559    -0.74500
Al401      Al  0.24877799  0.79668745  0.03398092     1.49000
C402        C  0.26501513  0.85262983  0.04903701     0.92800
O403        O  0.32205927  0.85208354  0.07275536    -0.80700
O404        O  0.31437602  0.78692047  0.03736913    -0.74300
Al405      Al  0.31234699  0.84448079  0.03984536     1.90100
O406        O  0.32069326  0.81300809  0.07977580    -0.73400
O407        O  0.26147136  0.75148146  0.04768012    -0.73200
O408        O  0.26556601  0.78255132  0.08576780    -0.78900
O409        O  0.24453993  0.76407590  0.01875060    -0.77100
O410        O  0.28357044  0.80911509  0.04488658    -1.13200
O411        O  0.26103038  0.81480453  0.00352056    -0.72400
C412        C  0.28516067  0.83059964  0.99437804     0.98300
C413        C  0.32900712  0.83801216  0.08538816     0.94700
Al414      Al  0.29001277  0.78566170  0.06117898     1.55600
O415        O  0.29073944  0.86214957  0.04445319    -0.77000
C416        C  0.24687665  0.74543661  0.02920269     0.98900
C417        C  0.33606409  0.80899375  0.02970922     0.93800
O418        O  0.33978533  0.83328234  0.03356140    -0.82300
O419        O  0.47329325  0.80693524  0.28091466    -0.81800
C420        C  0.41735993  0.85658952  0.23832960     0.97600
O421        O  0.40952259  0.83078362  0.23773765    -0.70900
O422        O  0.44974691  0.82453410  0.22087440    -0.74500
Al423      Al  0.42691060  0.81082943  0.24841074     1.49000
C424        C  0.47399078  0.82810600  0.21897764     0.92800
O425        O  0.50395299  0.88140607  0.25712281    -0.80700
O426        O  0.45200142  0.85005797  0.31174033    -0.74300
Al427      Al  0.48710479  0.84405702  0.26891225     1.90100
O428        O  0.48046978  0.89403793  0.27994667    -0.73400
O429        O  0.40499858  0.83204792  0.28816485    -0.73200
O430        O  0.43452929  0.87283365  0.25388801    -0.78900
O431        O  0.40097170  0.79364333  0.27371266    -0.77100
O432        O  0.45255632  0.83842889  0.26646848    -1.13200
O433        O  0.43876456  0.78501596  0.25526509    -0.72400
C434        C  0.45456621  0.78443720  0.27109159     0.98300
C435        C  0.50060660  0.90035323  0.26581650     0.94700
Al436      Al  0.44376636  0.86049444  0.28226284     1.55600
O437        O  0.48917099  0.83292072  0.23711598    -0.77000
C438        C  0.39144365  0.80547951  0.28631184     0.98900
C439        C  0.47506791  0.85221533  0.31721766     0.93800
O440        O  0.49282182  0.85611843  0.30134611    -0.82300
O441        O  0.16627623  0.67157344  0.28884129    -0.81800
C442        C  0.10459119  0.56669425  0.24183226     0.97600
O443        O  0.13112479  0.58239683  0.24275723    -0.70900
O444        O  0.14660303  0.63250598  0.22719368    -0.74500
Al445      Al  0.15531826  0.61947977  0.25489755     1.49000
C446        C  0.14744128  0.65550466  0.22549885     0.92800
O447        O  0.09378635  0.63680032  0.26109548    -0.80700
O448        O  0.11278020  0.60610266  0.31640654    -0.74300
Al449      Al  0.12985225  0.65262164  0.27487568     1.90100
O450        O  0.07345407  0.59810460  0.28263697    -0.73400
O451        O  0.12470873  0.57284497  0.29227358    -0.73200
O452        O  0.08893911  0.56919280  0.25661336    -0.78900
O453        O  0.16680343  0.60629017  0.28063018    -0.77100
O454        O  0.12910768  0.62038043  0.27188352    -1.13200
O455        O  0.18525974  0.65648296  0.26332229    -0.72400
C456        C  0.18777182  0.67346631  0.27941912     0.98300
C457        C  0.07185462  0.61491564  0.26850703     0.94700
Al458      Al  0.10207213  0.58909948  0.28599288     1.55600
O459        O  0.14496946  0.66719424  0.24378564    -0.77000
C460        C  0.15111519  0.58347218  0.29154386     0.98900
C461        C  0.11475304  0.62893440  0.32240592     0.93800
O462        O  0.11520862  0.64545198  0.30666156    -0.82300
O463        O  0.11665860  0.46905271  0.01057804    -0.81800
C464        C  0.18965485  0.46600304  0.07492523     0.97600
O465        O  0.17241827  0.44999542  0.05935816    -0.70900
O466        O  0.12672952  0.42966562  0.03328362    -0.74500
Al467      Al  0.16422161  0.46273441  0.03072748     1.49000
C468        C  0.10674839  0.42420987  0.04747642     0.92800
O469        O  0.12019209  0.49279889  0.07506181    -0.80700
O470        O  0.17144370  0.53963196  0.05725155    -0.74300
Al471      Al  0.12220806  0.48122807  0.04315797     1.90100
O472        O  0.15868873  0.49951863  0.09164529    -0.73400
O473        O  0.20821191  0.52927291  0.03937911    -0.73200
O474        O  0.19811456  0.49193735  0.07552392    -0.78900
O475        O  0.20384754  0.49071312  0.02522712    -0.77100
O476        O  0.15615678  0.48560175  0.04611605    -1.13200
O477        O  0.15674842  0.47315473  0.00063295    -0.72400
C478        C  0.13390855  0.47132306  0.99476191     0.98300
C479        C  0.13485203  0.49681130  0.09350053     0.94700
Al480      Al  0.18194194  0.51278389  0.06440931     1.55600
O481        O  0.10396545  0.44392493  0.05504980    -0.77000
C482        C  0.21831734  0.51726500  0.02774155     0.98900
C483        C  0.15655012  0.54046289  0.04074207     0.93800
O484        O  0.13739593  0.51821152  0.03102387    -0.82300
O485        O  0.48597490  0.66812904  0.00345399    -0.81800
C486        C  0.49935199  0.74364690  0.07604274     0.97600
O487        O  0.50840625  0.75098501  0.05494254    -0.70900
O488        O  0.53852855  0.73024642  0.04046311    -0.74500
Al489      Al  0.50676772  0.72919436  0.02751631     1.49000
C490        C  0.54468963  0.71157156  0.04291962     0.92800
O491        O  0.48599740  0.65869007  0.07006237    -0.80700
O492        O  0.42761378  0.66687438  0.03745256    -0.74300
Al493      Al  0.48571719  0.66563270  0.03676883     1.90100
O494        O  0.45043233  0.66297524  0.07895512    -0.73400
O495        O  0.45121978  0.72128086  0.04402250    -0.73200
O496        O  0.48071757  0.71843007  0.08108928    -0.78900
O497        O  0.47783622  0.73298689  0.01260881    -0.77100
O498        O  0.48268958  0.69584504  0.04084312    -1.13200
O499        O  0.50953302  0.71397722  0.99787775    -0.72400
C500        C  0.49771382  0.68917025  0.98981936     0.98300
C501        C  0.46696901  0.65487767  0.08445037     0.94700
Al502      Al  0.45493655  0.69262438  0.05879228     1.55600
O503        O  0.52636494  0.68597065  0.03883886    -0.77000
C504        C  0.45828061  0.73293635  0.02394904     0.98900
C505        C  0.42505303  0.64388537  0.03110926     0.93800
O506        O  0.44509946  0.63938155  0.03379369    -0.82300
O507        O  0.28330395  0.49851762  0.28252256    -0.81800
C508        C  0.38590002  0.54844547  0.23061948     0.97600
O509        O  0.36837177  0.55643134  0.23089218    -0.70900
O510        O  0.31676644  0.51782692  0.21966022    -0.74500
Al511      Al  0.33247683  0.54234283  0.24590530     1.49000
C512        C  0.29528961  0.49326880  0.21981501     0.92800
O513        O  0.32063487  0.46439782  0.25671950    -0.80700
O514        O  0.35210940  0.52074984  0.30810796    -0.74300
Al515      Al  0.30377660  0.48334695  0.26932953     1.90100
O516        O  0.36075113  0.48864685  0.27585682    -0.73400
O517        O  0.38234996  0.56572835  0.28105270    -0.73200
O518        O  0.38601387  0.53270580  0.24682908    -0.78900
O519        O  0.34757140  0.57038937  0.26969337    -0.77100
O520        O  0.33458210  0.51726411  0.26386180    -1.13200
O521        O  0.29619100  0.53307316  0.25710727    -0.72400
C522        C  0.27992804  0.51722696  0.27342682     0.98300
C523        C  0.34313877  0.46702204  0.26433810     0.94700
Al524      Al  0.36750617  0.52609634  0.27696618     1.55600
O525        O  0.28692993  0.47909207  0.23877013    -0.77000
C526        C  0.37099087  0.58025216  0.27985270     0.98900
C527        C  0.33008204  0.49888995  0.31569258     0.93800
O528        O  0.31342403  0.47998049  0.30136555    -0.82300
O529        O  0.97618535  0.17698223  0.35179826    -0.81800
C530        C  0.89662646  0.10740429  0.42088805     0.97600
O531        O  0.89042550  0.11007339  0.39973082    -0.70900
O532        O  0.91091566  0.16256902  0.38605708    -0.74500
Al533      Al  0.91373964  0.13280767  0.37327363     1.49000
C534        C  0.92930598  0.18846588  0.38744622     0.92800
O535        O  0.98051773  0.18472112  0.41873025    -0.80700
O536        O  0.97742682  0.12071894  0.38522932    -0.74300
Al537      Al  0.97634059  0.17863571  0.38511929     1.90100
O538        O  0.97671704  0.14466445  0.42710865    -0.73400
O539        O  0.92308168  0.08559646  0.38864332    -0.73200
O540        O  0.92149827  0.11466734  0.42657047    -0.78900
O541        O  0.91157294  0.10116048  0.35789316    -0.77100
O542        O  0.94640987  0.14352561  0.38783670    -1.13200
O543        O  0.93071002  0.15311440  0.34436158    -0.72400
C544        C  0.95603880  0.16732570  0.33729988     0.98300
C545        C  0.98385905  0.16928015  0.43309325     0.94700
Al546      Al  0.94944116  0.11863652  0.40535370     1.55600
O547        O  0.95524783  0.19712247  0.38553543    -0.77000
C548        C  0.91244529  0.08160287  0.36830527     0.98900
C549        C  0.00041868  0.14301609  0.38024468     0.93800
O550        O  0.00381275  0.16717584  0.38354112    -0.82300
O551        O  0.14029701  0.14072030  0.62125077    -0.81800
C552        C  0.09133013  0.19494747  0.57435815     0.97600
O553        O  0.08188934  0.16874972  0.57454947    -0.70900
O554        O  0.11914627  0.15761443  0.55999344    -0.74500
Al555      Al  0.09633486  0.14684093  0.58719132     1.49000
C556        C  0.14202812  0.15836922  0.55825722     0.92800
O557        O  0.17566900  0.21389071  0.59429932    -0.80700
O558        O  0.12305016  0.18885915  0.64905528    -0.74300
Al559      Al  0.15642779  0.17730589  0.60770975     1.90100
O560        O  0.15474939  0.23058850  0.61571118    -0.73400
O561        O  0.07669650  0.17318372  0.62430509    -0.73200
O562        O  0.10918966  0.21124076  0.58944560    -0.78900
O563        O  0.07025095  0.13281876  0.61244932    -0.77100
O564        O  0.12304946  0.17430725  0.60446680    -1.13200
O565        O  0.10524643  0.11911818  0.59593299    -0.72400
C566        C  0.12111291  0.11839669  0.61161629     0.98300
C567        C  0.17415229  0.23448849  0.60147879     0.94700
Al568      Al  0.11656688  0.19900325  0.61863249     1.55600
O569        O  0.15743921  0.16347280  0.57636097    -0.77000
C570        C  0.06144606  0.14657527  0.62311262     0.98900
C571        C  0.14534131  0.18984205  0.65530933     0.93800
O572        O  0.16269422  0.19131473  0.63990190    -0.82300
O573        O  0.14261291  0.99388373  0.33925075    -0.81800
C574        C  0.15126796  0.06563891  0.41375893     0.97600
O575        O  0.16254221  0.07337077  0.39338133    -0.70900
O576        O  0.19294351  0.05411574  0.37652964    -0.74500
Al577      Al  0.16088466  0.05357694  0.36489612     1.49000
C578        C  0.19864457  0.03517138  0.37904327     0.92800
O579        O  0.13844674  0.98074803  0.40512805    -0.80700
O580        O  0.08085125  0.98875242  0.37233664    -0.74300
Al581      Al  0.14001661  0.98953325  0.37234685     1.90100
O582        O  0.10303012  0.98504991  0.41428877    -0.73400
O583        O  0.10283320  0.04256368  0.37998271    -0.73200
O584        O  0.13140102  0.04052895  0.41772490    -0.78900
O585        O  0.13298182  0.05945386  0.35088558    -0.77100
O586        O  0.13627936  0.01936649  0.37707665    -1.13200
O587        O  0.16343145  0.03981683  0.33456909    -0.72400
C588        C  0.15383138  0.01542631  0.32618631     0.98300
C589        C  0.11875613  0.97581806  0.41910051     0.94700
Al590      Al  0.10723291  0.01463036  0.39444680     1.55600
O591        O  0.17998092  0.00959731  0.37602181    -0.77000
C592        C  0.11175776  0.05685977  0.36132555     0.98900
C593        C  0.07943643  0.96654276  0.36521556     0.93800
O594        O  0.10006981  0.96302178  0.36757685    -0.82300
O595        O  0.83468569  0.00965160  0.62394821    -0.81800
C596        C  0.77708406  0.90281311  0.57904439     0.97600
O597        O  0.80330047  0.92050479  0.57869863    -0.70900
O598        O  0.81423759  0.96936974  0.56329804    -0.74500
Al599      Al  0.82576411  0.95795366  0.59040388     1.49000
C600        C  0.81192736  0.99067703  0.56198769     0.92800
O601        O  0.75960993  0.96829507  0.60053518    -0.80700
O602        O  0.78536594  0.94181197  0.65401372    -0.74300
Al603      Al  0.79700654  0.98726430  0.61230258     1.90100
O604        O  0.74314276  0.92968113  0.62146012    -0.73400
O605        O  0.80018827  0.91181971  0.62877518    -0.73200
O606        O  0.76145811  0.90418283  0.59452348    -0.78900
O607        O  0.84033457  0.94666497  0.61532599    -0.77100
O608        O  0.79920210  0.95666492  0.60876520    -1.13200
O609        O  0.85413840  0.99574524  0.59791667    -0.72400
C610        C  0.85639540  0.01298768  0.61360870     0.98300
C611        C  0.73907943  0.94481685  0.60730272     0.94700
Al612      Al  0.77456686  0.92458596  0.62359075     1.55600
O613        O  0.80854933  0.00138434  0.58050886    -0.77000
C614        C  0.82662854  0.92382678  0.62674713     0.98900
C615        C  0.78608587  0.96388474  0.66050139     0.93800
O616        O  0.78520183  0.98002497  0.64505854    -0.82300
O617        O  0.78417030  0.81448009  0.34300046    -0.81800
C618        C  0.85187005  0.81742787  0.41938471     0.97600
O619        O  0.84892729  0.80520844  0.39961961    -0.70900
O620        O  0.79590469  0.77033452  0.38957899    -0.74500
Al621      Al  0.82531255  0.79974797  0.37221559     1.49000
C622        C  0.77029129  0.76273012  0.39054267     0.92800
O623        O  0.77447206  0.82061936  0.40845570    -0.80700
O624        O  0.84051326  0.87841574  0.37250593    -0.74300
Al625      Al  0.78143074  0.81803402  0.37596132     1.90100
O626        O  0.81472979  0.85907020  0.41601497    -0.73400
O627        O  0.87360888  0.85943038  0.38119293    -0.73200
O628        O  0.84394552  0.83476577  0.42177824    -0.78900
O629        O  0.85644534  0.82684350  0.35388374    -0.77100
O630        O  0.81582379  0.82426681  0.38147848    -1.13200
O631        O  0.80409665  0.78935646  0.34288232    -0.72400
C632        C  0.79210393  0.80017278  0.33196267     0.98300
C633        C  0.78964636  0.84102873  0.42193499     0.94700
Al634      Al  0.84102898  0.85535032  0.39655453     1.55600
O635        O  0.76175625  0.77779603  0.38146653    -0.77000
C636        C  0.87694670  0.84879705  0.36263820     0.98900
C637        C  0.81903513  0.87864965  0.36586629     0.93800
O638        O  0.79434677  0.85750985  0.36950171    -0.82300
O639        O  0.95646586  0.83489473  0.62209241    -0.81800
C640        C  0.06033220  0.88729884  0.57302880     0.97600
O641        O  0.04420168  0.89687478  0.57472753    -0.70900
O642        O  0.99415479  0.85806131  0.56008943    -0.74500
Al643      Al  0.00699434  0.88040434  0.58764102     1.49000
C644        C  0.97134267  0.83455589  0.55871128     0.92800
O645        O  0.99464920  0.80179115  0.59438761    -0.80700
O646        O  0.02490124  0.85517511  0.64818755    -0.74300
Al647      Al  0.97724248  0.82020485  0.60804066     1.90100
O648        O  0.03365189  0.82456009  0.61491002    -0.73400
O649        O  0.05515689  0.90162700  0.62309711    -0.73200
O650        O  0.05888099  0.86935021  0.58760476    -0.78900
O651        O  0.01939079  0.90551935  0.61339790    -0.77100
O652        O  0.00817127  0.85413336  0.60433464    -1.13200
O653        O  0.96973962  0.86965165  0.59675986    -0.72400
C654        C  0.95296118  0.85334095  0.61251887     0.98300
C655        C  0.01711164  0.80397841  0.60190027     0.94700
Al656      Al  0.04055421  0.86196742  0.61750290     1.55600
O657        O  0.96156182  0.81888638  0.57693323    -0.77000
C658        C  0.04318417  0.91568721  0.62303611     0.98900
C659        C  0.00308458  0.83276444  0.65506123     0.93800
O660        O  0.98610839  0.81492585  0.64005716    -0.82300
O661        O  0.99105528  0.86267961  0.86187295    -0.81800
C662        C  0.88449579  0.80315460  0.90727269     0.97600
O663        O  0.90155742  0.82952747  0.90702366    -0.70900
O664        O  0.95114661  0.84252774  0.92284436    -0.74500
Al665      Al  0.93904125  0.85280021  0.89533294     1.49000
C666        C  0.97355953  0.84218523  0.92442455     0.92800
O667        O  0.95344076  0.78878240  0.88667761    -0.80700
O668        O  0.92453881  0.81138333  0.83303725    -0.74300
Al669      Al  0.97044438  0.82569474  0.87452480     1.90100
O670        O  0.91437919  0.77042509  0.86603410    -0.73400
O671        O  0.89289000  0.82501763  0.85734427    -0.73200
O672        O  0.88681958  0.78735814  0.89257323    -0.78900
O673        O  0.92713165  0.86611205  0.86983903    -0.77100
O674        O  0.93890446  0.82633325  0.87777782    -1.13200
O675        O  0.97653846  0.88194054  0.88760151    -0.72400
C676        C  0.99392433  0.88412443  0.87208044     0.98300
C677        C  0.93166315  0.76752156  0.87845007     0.94700
Al678      Al  0.90725241  0.80056836  0.86333781     1.55600
O679        O  0.98435732  0.83869275  0.90597603    -0.77000
C680        C  0.90454513  0.85156852  0.85838497     0.98900
C681        C  0.94735894  0.81329795  0.82703869     0.93800
O682        O  0.96368476  0.81293071  0.84240830    -0.82300
O683        O  0.16357828  0.00127054  0.14071423    -0.81800
C684        C  0.09363526  0.93500744  0.06521099     0.97600
O685        O  0.09668891  0.92563424  0.08480892    -0.70900
O686        O  0.14823487  0.94262888  0.09746677    -0.74500
Al687      Al  0.11872900  0.94355962  0.11288271     1.49000
C688        C  0.17427685  0.96054959  0.09655686     0.92800
O689        O  0.17298869  0.01689133  0.07490444    -0.80700
O690        O  0.10927046  0.00997678  0.11219294    -0.74300
Al691      Al  0.16605349  0.00721873  0.10778647     1.90100
O692        O  0.13371265  0.01560593  0.06873019    -0.73400
O693        O  0.07284166  0.95684922  0.10298601    -0.73200
O694        O  0.10166958  0.96079036  0.06295100    -0.78900
O695        O  0.08672754  0.93880111  0.12995718    -0.77100
O696        O  0.13053874  0.97856435  0.10298904    -1.13200
O697        O  0.13826911  0.95491863  0.14260779    -0.72400
C698        C  0.15308187  0.97869804  0.15246152     0.98300
C699        C  0.15848481  0.02345618  0.06240328     0.94700
Al700      Al  0.10654036  0.98530809  0.08806861     1.55600
O701        O  0.18378260  0.98577091  0.10274862    -0.77000
C702        C  0.06747014  0.94132666  0.12092076     0.98900
C703        C  0.13185450  0.03191890  0.11852209     0.93800
O704        O  0.15572347  0.03505308  0.11409390    -0.82300
O705        O  0.12340105  0.16360556  0.86691022    -0.81800
C706        C  0.17998376  0.11570254  0.91178616     0.97600
O707        O  0.15406184  0.10712115  0.91259236    -0.70900
O708        O  0.14546806  0.14633908  0.92813618    -0.74500
Al709      Al  0.13246832  0.12231014  0.90140018     1.49000
C710        C  0.14648010  0.16945908  0.92935422     0.92800
O711        O  0.19856914  0.20195926  0.88988059    -0.80700
O712        O  0.17279302  0.14822273  0.83701683    -0.74300
Al713      Al  0.16102224  0.18117962  0.87861372     1.90100
O714        O  0.21471791  0.17930495  0.87022287    -0.73400
O715        O  0.15602045  0.10195792  0.86203127    -0.73200
O716        O  0.19580714  0.13344050  0.89629934    -0.78900
O717        O  0.11671106  0.09577778  0.87680573    -0.77100
O718        O  0.15890402  0.14831660  0.88252841    -1.13200
O719        O  0.10443958  0.13110920  0.89454860    -0.72400
C720        C  0.10196869  0.14511592  0.87815745     0.98300
C721        C  0.21904111  0.20018949  0.88257221     0.94700
Al722      Al  0.18291917  0.14141998  0.86752491     1.55600
O723        O  0.14931432  0.18323086  0.91051324    -0.77000
C724        C  0.12954197  0.08684603  0.86477231     0.98900
C725        C  0.17213531  0.16961413  0.83052929     0.93800
O726        O  0.17289750  0.18645984  0.84595572    -0.82300
O727        O  0.81472050  0.98079776  0.86750634    -0.81800
C728        C  0.87193641  0.08621463  0.91360403     0.97600
O729        O  0.88028273  0.06908169  0.91206066    -0.70900
O730        O  0.84052720  0.02002576  0.92787654    -0.74500
Al731      Al  0.86242231  0.03164660  0.89989967     1.49000
C732        C  0.81604441  0.99871620  0.93006808     0.92800
O733        O  0.78447204  0.02290502  0.89274277    -0.80700
O734        O  0.83796903  0.04964438  0.83899520    -0.74300
Al735      Al  0.80178377  0.00365945  0.88032703     1.90100
O736        O  0.80884801  0.06148770  0.87181867    -0.73400
O737        O  0.88463210  0.07923630  0.86376871    -0.73200
O738        O  0.85409404  0.08541360  0.89920647    -0.78900
O739        O  0.88745989  0.04291884  0.87374668    -0.77100
O740        O  0.83645825  0.03373913  0.88333407    -1.13200
O741        O  0.85030874  0.99390842  0.89161721    -0.72400
C742        C  0.83344813  0.97717295  0.87621960     0.98300
C743        C  0.78770274  0.04560592  0.88469533     0.94700
Al744      Al  0.84552146  0.06625544  0.86945975     1.55600
O745        O  0.79983550  0.98932426  0.91216102    -0.77000
C746        C  0.89829549  0.06690805  0.86418861     0.98900
C747        C  0.81573004  0.02741347  0.83245130     0.93800
O748        O  0.79725479  0.01147899  0.84764424    -0.82300
O749        O  0.97788619  0.16925280  0.14878657    -0.71000
C750        C  0.04931556  0.17908880  0.07336153     0.97600
O751        O  0.05789455  0.19068354  0.09364106    -0.70900
O752        O  0.03751007  0.22095991  0.10987883    -0.74500
Al753      Al  0.03801673  0.18984567  0.12267064     1.49000
C754        C  0.01798111  0.22594845  0.10804578     0.92800
O755        O  0.96570818  0.16497194  0.08251977    -0.80700
O756        O  0.97666445  0.10959335  0.11794239    -0.74300
Al757      Al  0.97372074  0.16674298  0.11572066     1.90100
O758        O  0.96902390  0.12850525  0.07590031    -0.73400
O759        O  0.03065230  0.13383771  0.10793627    -0.73200
O760        O  0.02389358  0.15947175  0.07053364    -0.78900
O761        O  0.04418872  0.16261706  0.13776825    -0.77100
O762        O  0.00416154  0.16433779  0.11122403    -1.13200
O763        O  0.02394579  0.19301062  0.15312199    -0.72400
C764        C  0.99935821  0.18193467  0.16184678     0.98300
C765        C  0.96125568  0.14489677  0.06920322     0.94700
Al766      Al  0.00037266  0.13543141  0.09462548     1.55600
O767        O  0.99268691  0.20685533  0.11205976    -0.77000
C768        C  0.04450064  0.14315097  0.12676737     0.98900
C769        C  0.95341595  0.10666655  0.12403524     0.93800
O770        O  0.94839972  0.12628775  0.12072855    -0.82300
O771        O  0.79830401  0.81098802  0.14388839    -0.81800
C772        C  0.80431139  0.88187617  0.06896130     0.97600
O773        O  0.79345630  0.87973769  0.08925048    -0.70900
O774        O  0.75576244  0.82787913  0.09993892    -0.74500
Al775      Al  0.78744134  0.85605900  0.11645242     1.49000
C776        C  0.74600428  0.80177577  0.09883590     0.92800
O777        O  0.80205513  0.80192942  0.07795117    -0.80700
O778        O  0.86339249  0.86518076  0.11374518    -0.74300
Al779      Al  0.80077752  0.80865020  0.11076577     1.90100
O780        O  0.84207830  0.84080258  0.07077519    -0.73400
O781        O  0.84829268  0.90145820  0.10608636    -0.73200
O782        O  0.82094817  0.87309837  0.06583240    -0.78900
O783        O  0.81673276  0.88626704  0.13428696    -0.77100
O784        O  0.80957264  0.84410989  0.10599333    -1.13200
O785        O  0.77706567  0.83494471  0.14558983    -0.72400
C786        C  0.78565229  0.82039326  0.15549196     0.98300
C787        C  0.82306386  0.81626714  0.06467751     0.94700
Al788      Al  0.84102334  0.86803388  0.09044556     1.55600
O789        O  0.76027248  0.79150337  0.10633091    -0.77000
C790        C  0.83970802  0.90546384  0.12548287     0.98900
C791        C  0.86212124  0.84275836  0.11982741     0.93800
O792        O  0.83994440  0.81876585  0.11615111    -0.82300
C793        C  0.89886437  0.97955440  0.14067910    -0.22500
C794        C  0.88335440  0.99113119  0.14906214     0.09500
C795        C  0.85419966  0.97326547  0.15357975     0.09900
C796        C  0.84071986  0.94458035  0.14749413    -0.17400
C797        C  0.85575618  0.93365297  0.13662085    -0.27800
C798        C  0.88550106  0.95107040  0.13429791     0.18200
C799        C  0.89698860  0.02217366  0.14739951     0.12200
C800        C  0.83728707  0.98466359  0.16418774    -0.12200
H801        H  0.81804139  0.93114831  0.14972920     0.12500
C802        C  0.90334682  0.94022910  0.12447309    -0.23000
H803        H  0.92127717  0.99342846  0.13725278     0.08100
C804        C  0.92058335  0.04075766  0.16135516     0.04500
C805        C  0.93768030  0.06909975  0.15423981    -0.20200
C806        C  0.93153723  0.07911052  0.13359290    -0.12500
C807        C  0.90691008  0.06082851  0.12047815     0.13200
C808        C  0.88978778  0.03270890  0.12779125    -0.23000
C809        C  0.92794165  0.03053197  0.18337630    -0.06000
H810        H  0.95664720  0.08321178  0.16419159     0.14700
C811        C  0.89918656  0.06927940  0.09757531    -0.16200
H812        H  0.87192698  0.01825664  0.11686421     0.09000
H813        H  0.89872051  0.92086296  0.13414817     0.06900
H814        H  0.92627066  0.95599747  0.12640228     0.08100
H815        H  0.89918452  0.93559801  0.10525212     0.07100
H816        H  0.83787896  0.00095201  0.15236840     0.02000
H817        H  0.84625313  0.99422211  0.18174397     0.02500
H818        H  0.81481892  0.96776323  0.16681408     0.06000
H819        H  0.94680853  0.04793930  0.19240459     0.05000
H820        H  0.93253121  0.01393469  0.17881755    -0.00800
H821        H  0.90992767  0.02169411  0.19602832     0.00700
H822        H  0.89826269  0.05539119  0.08298993     0.04300
H823        H  0.91433251  0.09133308  0.09217464     0.06300
H824        H  0.87809570  0.06673354  0.09949408     0.07100
C825        C  0.81777786  0.97457252  0.99337330    -0.22500
C826        C  0.79574283  0.94636286  0.99226163     0.09500
C827        C  0.77757137  0.93683711  0.97251751     0.09900
C828        C  0.78351837  0.95518676  0.95319348    -0.17400
C829        C  0.80737328  0.98287873  0.95309422    -0.27800
C830        C  0.82403755  0.99303547  0.97412418     0.18200
C831        C  0.79457027  0.92676050  0.01071137     0.12200
C832        C  0.75235525  0.90714081  0.97169075    -0.12200
H833        H  0.77022163  0.94722139  0.93756799     0.12500
C834        C  0.84897969  0.02282255  0.97658730    -0.23000
H835        H  0.83123335  0.98171196  0.00896507     0.08100
C836        C  0.80949618  0.91285634  0.00770641     0.04500
C837        C  0.81121545  0.89746814  0.02668581    -0.20200
C838        C  0.79872776  0.89589840  0.04888635    -0.12500
C839        C  0.78266071  0.90898847  0.05141802     0.13200
C840        C  0.78094685  0.92430294  0.03226482    -0.23000
C841        C  0.82448653  0.91512131  0.98468602    -0.06000
H842        H  0.82320643  0.88731422  0.02426074     0.14700
C843        C  0.76765409  0.90765003  0.07417163    -0.16200
H844        H  0.76958669  0.93516198  0.03428996     0.09000
H845        H  0.85785264  0.02712702  0.99484815     0.06900
H846        H  0.84237582  0.03810260  0.97286337     0.08100
H847        H  0.86625143  0.02643561  0.96438747     0.07100
H848        H  0.73796699  0.90377959  0.98673015     0.02000
H849        H  0.75920458  0.89169845  0.97310009     0.02500
H850        H  0.74034420  0.90297521  0.95488805     0.06000
H851        H  0.83532843  0.90309669  0.98533456     0.05000
H852        H  0.84061610  0.93757350  0.98093658    -0.00800
H853        H  0.80909476  0.90660844  0.96986007     0.00700
H854        H  0.78320400  0.91811377  0.08872597     0.04300
H855        H  0.75215808  0.88529161  0.07887235     0.06300
H856        H  0.75581632  0.91861162  0.07251434     0.07100
C857        C  0.87888920  0.11399406  0.97519144    -0.22500
C858        C  0.90841328  0.12958457  0.97727741     0.09500
C859        C  0.92538732  0.13552723  0.95683387     0.09900
C860        C  0.91244197  0.12388151  0.93504266    -0.17400
C861        C  0.88304907  0.10619461  0.93338631    -0.27800
C862        C  0.86594710  0.10203785  0.95336623     0.18200
C863        C  0.92096683  0.13387225  0.00118024     0.12200
C864        C  0.95718459  0.15257461  0.95832009    -0.12200
H865        H  0.92540815  0.12654131  0.91967142     0.12500
C866        C  0.83426043  0.08308458  0.95204793    -0.23000
H867        H  0.86603429  0.10924668  0.99104461     0.08100
C868        C  0.92506608  0.15569729  0.01645760     0.04500
C869        C  0.93786108  0.15857428  0.03867961    -0.20200
C870        C  0.94689946  0.14022761  0.04581868    -0.12500
C871        C  0.94260912  0.11825106  0.03009089     0.13200
C872        C  0.92934395  0.11527605  0.00827936    -0.23000
C873        C  0.91633886  0.17607405  0.00911893    -0.06000
H874        H  0.94103100  0.17543603  0.05038615     0.14700
C875        C  0.95216226  0.09788781  0.03545072    -0.16200
H876        H  0.92590945  0.09854175  0.99627623     0.09000
H877        H  0.82410672  0.08119018  0.96952317     0.06900
H878        H  0.82831828  0.06159006  0.94624503     0.08100
H879        H  0.82582063  0.09183083  0.93902749     0.07100
H880        H  0.96479738  0.14168660  0.96981582     0.02000
H881        H  0.96425395  0.17370124  0.96583819     0.02500
H882        H  0.96714225  0.15560891  0.94056492     0.06000
H883        H  0.92141143  0.19220866  0.02301039     0.05000
H884        H  0.89321881  0.16444192  0.00591913    -0.00800
H885        H  0.92757986  0.18714231  0.99254650     0.00700
H886        H  0.94135734  0.08538468  0.05162563     0.04300
H887        H  0.97544019  0.10965109  0.03780446     0.06300
H888        H  0.94709100  0.08260460  0.02080094     0.07100
C889        C  0.11548748  0.20565174  0.03458013    -0.22500
C890        C  0.10307873  0.19137346  0.01334868     0.09500
C891        C  0.07343310  0.17463423  0.01158020     0.09900
C892        C  0.05682783  0.17301143  0.03090332    -0.17400
C893        C  0.06889668  0.18634609  0.05271204    -0.27800
C894        C  0.09881921  0.20310107  0.05445203     0.18200
C895        C  0.12097128  0.19164285  0.99370578     0.12200
C896        C  0.05920318  0.15706106  0.98976642    -0.12200
H897        H  0.03408426  0.15998282  0.02915384     0.12500
C898        C  0.11353202  0.21746105  0.07722415    -0.23000
H899        H  0.13829954  0.21801257  0.03582532     0.08100
C900        C  0.12462730  0.20678429  0.97255947     0.04500
C901        C  0.13478053  0.20036239  0.95220438    -0.20200
C902        C  0.14160281  0.17925387  0.95253280    -0.12500
C903        C  0.14087218  0.16643592  0.97465054     0.13200
C904        C  0.13047240  0.17282188  0.99488557    -0.23000
C905        C  0.11724883  0.22927284  0.97142576    -0.06000
H906        H  0.13601711  0.21099812  0.93566845     0.14700
C907        C  0.15029963  0.14558122  0.97727301    -0.16200
H908        H  0.12805047  0.16171627  0.01143397     0.09000
H909        H  0.13686294  0.22958179  0.07517501     0.06900
H910        H  0.10809540  0.20144498  0.09138127     0.08100
H911        H  0.10716241  0.23250181  0.08274941     0.07100
H912        H  0.06642659  0.14209012  0.98676293     0.02000
H913        H  0.06437239  0.17074194  0.97388486     0.02500
H914        H  0.03585008  0.14451809  0.99165598     0.06000
H915        H  0.12146071  0.23917710  0.95354068     0.05000
H916        H  0.13016739  0.24604259  0.98454509    -0.00800
H917        H  0.09459268  0.22023102  0.97558691     0.00700
H918        H  0.17204747  0.15489587  0.97016959     0.04300
H919        H  0.13562426  0.12570595  0.96778601     0.06300
H920        H  0.15055966  0.13992288  0.99617435     0.07100
C921        C  0.97523767  0.12377184  0.85345388    -0.22500
C922        C  0.98733281  0.10717467  0.85337320     0.09500
C923        C  0.96986910  0.07753864  0.85242699     0.09900
C924        C  0.94049769  0.06504575  0.85324450    -0.17400
C925        C  0.92817141  0.08144653  0.85600747    -0.27800
C926        C  0.94583132  0.11137587  0.85491198     0.18200
C927        C  0.01763062  0.12061671  0.85900557     0.12200
C928        C  0.98230662  0.05908237  0.85221930    -0.12200
H929        H  0.92719727  0.04218628  0.85354152     0.12500
C930        C  0.93440614  0.13062582  0.85692492    -0.23000
H931        H  0.98901119  0.14655875  0.85417208     0.08100
C932        C  0.03858656  0.12949816  0.84133663     0.04500
C933        C  0.06644181  0.13873394  0.84810277    -0.20200
C934        C  0.07348389  0.13902799  0.87212916    -0.12500
C935        C  0.05262962  0.13171552  0.88987712     0.13200
C936        C  0.02497947  0.12266255  0.88300873    -0.23000
C937        C  0.03141632  0.12881778  0.81547754    -0.06000
H938        H  0.08247495  0.14464555  0.83457244     0.14700
C939        C  0.05923559  0.13359128  0.91608541    -0.16200
H940        H  0.00868467  0.11618507  0.89640778     0.09000
H941        H  0.95139326  0.15323090  0.85546597     0.06900
H942        H  0.92401445  0.12769653  0.87443751     0.08100
H943        H  0.91909885  0.12606522  0.84240147     0.07100
H944        H  0.99492035  0.06269076  0.86856619     0.02000
H945        H  0.99617487  0.06414338  0.83645936     0.02500
H946        H  0.96566830  0.03630313  0.85150693     0.06000
H947        H  0.05028449  0.13638462  0.80394655     0.05000
H948        H  0.02280068  0.14263046  0.81245875    -0.00800
H949        H  0.01537512  0.10692676  0.81014506     0.00700
H950        H  0.04093432  0.12952628  0.92718904     0.04300
H951        H  0.07718867  0.15506021  0.92042008     0.06300
H952        H  0.06452846  0.11760526  0.92112380     0.07100
C953        C  0.93064170  0.87614247  0.15259140    -0.22500
C954        C  0.94718600  0.87247881  0.13588392     0.09500
C955        C  0.93374372  0.85312014  0.11707816     0.09900
C956        C  0.90432293  0.83975452  0.11424368    -0.17400
C957        C  0.88825409  0.84585486  0.12947847    -0.27800
C958        C  0.90129986  0.86299737  0.14962055     0.18200
C959        C  0.97843971  0.89183621  0.13621958     0.12200
C960        C  0.95071144  0.84831742  0.09890858    -0.12200
H961        H  0.89436020  0.82688720  0.09867428     0.12500
C962        C  0.88482418  0.86866940  0.16766850    -0.23000
H963        H  0.94087269  0.89066569  0.16722247     0.08100
C964        C  0.99104382  0.91952545  0.12704981     0.04500
C965        C  0.02047037  0.93597991  0.12437493    -0.20200
C966        C  0.03780859  0.92526697  0.12987500    -0.12500
C967        C  0.02525990  0.89797863  0.14022143     0.13200
C968        C  0.99571717  0.88172070  0.14342053    -0.23000
C969        C  0.97334641  0.93119350  0.11872848    -0.06000
H970        H  0.02985685  0.95690260  0.11669066     0.14700
C971        C  0.04243920  0.88510719  0.14661923    -0.16200
H972        H  0.98586382  0.86045667  0.15047484     0.09000
H973        H  0.89270931  0.89158173  0.16814707     0.06900
H974        H  0.88762757  0.86195281  0.18551896     0.08100
H975        H  0.86184429  0.85697657  0.16381714     0.07100
H976        H  0.96258331  0.83982650  0.10774781     0.02000
H977        H  0.96584227  0.86854555  0.08993015     0.02500
H978        H  0.93701104  0.83298883  0.08510758     0.06000
H979        H  0.98655285  0.95291122  0.11143634     0.05000
H980        H  0.96089206  0.93199033  0.13378734    -0.00800
H981        H  0.95872231  0.91754426  0.10451947     0.00700
H982        H  0.02905388  0.86348723  0.15404688     0.04300
H983        H  0.05839744  0.89825714  0.16023348     0.06300
H984        H  0.05316972  0.88359627  0.13055453     0.07100
C985        C  0.16858801  0.06844229  0.00773723    -0.22500
C986        C  0.18970282  0.06704489  0.99551247     0.09500
C987        C  0.20235231  0.05334148  0.00603349     0.09900
C988        C  0.19257524  0.04023809  0.02836795    -0.17400
C989        C  0.17005001  0.04009076  0.04007636    -0.27800
C990        C  0.15834664  0.05504677  0.02966775     0.18200
C991        C  0.19571914  0.07845141  0.97099444     0.12200
C992        C  0.22581553  0.05233841  0.99365119    -0.12200
H993        H  0.20189050  0.02920627  0.03627272     0.12500
C994        C  0.13492613  0.05711688  0.04114092    -0.23000
H995        H  0.15922200  0.07926503  0.99946422     0.08100
C996        C  0.17840836  0.06151859  0.95216758     0.04500
C997        C  0.17637994  0.07454955  0.93156085    -0.20200
C998        C  0.19076422  0.10409196  0.92952283    -0.12500
C999        C  0.20990506  0.12099075  0.94755308     0.13200
C1000       C  0.21237991  0.10783996  0.96797500    -0.23000
C1001       C  0.16006945  0.02985068  0.95468826    -0.06000
H1002       H  0.16155126  0.06165667  0.91781699     0.14700
C1003       C  0.22594368  0.15282633  0.94704782    -0.16200
H1004       H  0.22525304  0.12078582  0.98265488     0.09000
H1005       H  0.11515413  0.03605300  0.04161028     0.06900
H1006       H  0.13017029  0.07137367  0.03111783     0.08100
H1007       H  0.14112960  0.06567225  0.05938497     0.07100
H1008       H  0.24372142  0.07415504  0.99025805     0.02000
H1009       H  0.21825113  0.04111921  0.97647111     0.02500
H1010       H  0.23368563  0.04117957  0.00452722     0.06000
H1011       H  0.14739765  0.01988993  0.93843919     0.05000
H1012       H  0.14519632  0.02427068  0.96980513    -0.00800
H1013       H  0.17342879  0.02078789  0.95786866     0.00700
H1014       H  0.21977280  0.16066963  0.96260630     0.04300
H1015       H  0.22209520  0.16163358  0.93086413     0.06300
H1016       H  0.24894717  0.16115338  0.94803993     0.07100
C1017       C  0.10288566  0.06810750  0.15430272    -0.22500
C1018       C  0.10955671  0.09078121  0.13905409     0.09500
C1019       C  0.12911065  0.09735357  0.12036893     0.09900
C1020       C  0.13944442  0.07950386  0.11607893    -0.17400
C1021       C  0.12967654  0.05474165  0.12936599    -0.27800
C1022       C  0.11235157  0.04968554  0.14944303     0.18200
C1023       C  0.09183844  0.10352659  0.13992670     0.12200
C1024       C  0.13720391  0.12168710  0.10368135    -0.12200
H1025       H  0.15287987  0.08332730  0.10080307     0.12500
C1026       C  0.10253978  0.02438495  0.16539923    -0.23000
H1027       H  0.08831516  0.06339094  0.16887948     0.08100
C1028       C  0.06357231  0.08796288  0.13204002     0.04500
C1029       C  0.04823097  0.10131747  0.13021946    -0.20200
C1030       C  0.06059557  0.13025820  0.13494559    -0.12500
C1031       C  0.08883493  0.14581559  0.14340421     0.13200
C1032       C  0.10381642  0.13195587  0.14627396    -0.23000
C1033       C  0.04995268  0.05766020  0.12406637    -0.06000
H1034       H  0.02670110  0.08931724  0.12373291     0.14700
C1035       C  0.10483335  0.17715933  0.14804548    -0.16200
H1036       H  0.12556211  0.14382656  0.15222621     0.09000
H1037       H  0.07916944  0.01069519  0.16460462     0.06900
H1038       H  0.10890689  0.03156952  0.18398264     0.08100
H1039       H  0.11178006  0.01158750  0.16044573     0.07100
H1040       H  0.14771154  0.14181535  0.11371311     0.02000
H1041       H  0.11806254  0.11887148  0.09480090     0.02500
H1042       H  0.15205984  0.12325794  0.08967424     0.06000
H1043       H  0.02824633  0.04925195  0.11721073     0.05000
H1044       H  0.04841111  0.04408122  0.13917094    -0.00800
H1045       H  0.06265498  0.05609854  0.10958861     0.00700
H1046       H  0.11113421  0.18109088  0.16702111     0.04300
H1047       H  0.09293281  0.18745831  0.14398707     0.06300
H1048       H  0.12419918  0.18767182  0.13688130     0.07100
C1049       C  0.83620800  0.80206434  0.95399684    -0.22500
C1050       C  0.83872097  0.78521613  0.97106763     0.09500
C1051       C  0.84992416  0.76851345  0.96463516     0.09900
C1052       C  0.86178438  0.77184768  0.94190111    -0.17400
C1053       C  0.86262770  0.79165777  0.92588098    -0.27800
C1054       C  0.84789433  0.80537441  0.93137456     0.18200
C1055       C  0.83496496  0.79016832  0.99614630     0.12200
C1056       C  0.85072981  0.74852509  0.98223166    -0.12200
H1057       H  0.87278167  0.76107700  0.93754913     0.12500
C1058       C  0.84540518  0.82474479  0.91415596    -0.23000
H1059       H  0.82701590  0.81440520  0.95892733     0.08100
C1060       C  0.85793126  0.81178423  0.00889464     0.04500
C1061       C  0.85335841  0.81874736  0.03155641    -0.20200
C1062       C  0.82625367  0.80502986  0.04179459    -0.12500
C1063       C  0.80329026  0.78269998  0.02919963     0.13200
C1064       C  0.80803001  0.77560296  0.00642244    -0.23000
C1065       C  0.88720639  0.82818063  0.99829394    -0.06000
H1066       H  0.87112660  0.83559914  0.04109003     0.14700
C1067       C  0.77365143  0.76694367  0.03903309    -0.16200
H1068       H  0.79057271  0.75923557  0.99627506     0.09000
H1069       H  0.85665403  0.84659155  0.92125657     0.06900
H1070       H  0.82278711  0.81750135  0.91161637     0.08100
H1071       H  0.85423948  0.82496478  0.89649145     0.07100
H1072       H  0.82889301  0.73277250  0.98808707     0.02000
H1073       H  0.86346876  0.76031757  0.99795579     0.02500
H1074       H  0.86013912  0.73699398  0.97435262     0.06000
H1075       H  0.90264287  0.84458551  0.01063221     0.05000
H1076       H  0.88698459  0.83892166  0.98171771    -0.00800
H1077       H  0.89464476  0.81362744  0.99419167     0.00700
H1078       H  0.76651215  0.78187857  0.04258918     0.04300
H1079       H  0.77295636  0.75585800  0.05568355     0.06300
H1080       H  0.75846977  0.75076877  0.02641817     0.07100
C1081       C  0.89139444  0.90958928  0.84308704    -0.22500
C1082       C  0.86269124  0.89612381  0.84893356     0.09500
C1083       C  0.84671200  0.86655050  0.85177389     0.09900
C1084       C  0.86055967  0.85147596  0.85129443    -0.17400
C1085       C  0.89009034  0.86560554  0.84892217    -0.27800
C1086       C  0.90527911  0.89461264  0.84271833     0.18200
C1087       C  0.85143787  0.91394936  0.85606415     0.12200
C1088       C  0.81545438  0.85126018  0.85670152    -0.12200
H1089       H  0.84860301  0.82901565  0.85506696     0.12500
C1090       C  0.93617793  0.91051477  0.83618617    -0.23000
H1091       H  0.90342706  0.93225140  0.84022638     0.08100
C1092       C  0.85304917  0.92207213  0.88002241     0.04500
C1093       C  0.84527044  0.94143288  0.88611196    -0.20200
C1094       C  0.83640175  0.95335981  0.86882703    -0.12500
C1095       C  0.83390261  0.94456046  0.84489119     0.13200
C1096       C  0.84151163  0.92486170  0.83878852    -0.23000
C1097       C  0.86418698  0.91127306  0.89905293    -0.06000
H1098       H  0.84708915  0.94810115  0.90447759     0.14700
C1099       C  0.82477745  0.95693863  0.82560723    -0.16200
H1100       H  0.84060277  0.91863175  0.82043001     0.09000
H1101       H  0.94851637  0.92688905  0.84976273     0.06900
H1102       H  0.93911712  0.92097719  0.81868314     0.08100
H1103       H  0.94479381  0.89658495  0.83448485     0.07100
H1104       H  0.80464190  0.85489647  0.84180895     0.02000
H1105       H  0.81135608  0.85911606  0.87339389     0.02500
H1106       H  0.80616829  0.82814424  0.85861452     0.06000
H1107       H  0.86430084  0.92005441  0.91679409     0.05000
H1108       H  0.88618681  0.91740799  0.89475267    -0.00800
H1109       H  0.85081100  0.88793584  0.90028252     0.00700
H1110       H  0.83917684  0.98023524  0.82508014     0.04300
H1111       H  0.80286032  0.95165964  0.82903384     0.06300
H1112       H  0.82517993  0.94853858  0.80782800     0.07100
C1113       C  0.99995808  0.86770187  0.98738277    -0.22500
C1114       C  0.02504333  0.86756593  0.98718500     0.09500
C1115       C  0.03092778  0.85515250  0.96810284     0.09900
C1116       C  0.01280036  0.84555940  0.94842913    -0.17400
C1117       C  0.98870351  0.84783463  0.94750912    -0.27800
C1118       C  0.98154678  0.85789231  0.96789920     0.18200
C1119       C  0.04595985  0.88339658  0.00599678     0.12200
C1120       C  0.05644428  0.85233667  0.96845917    -0.12200
H1121       H  0.01809334  0.83707740  0.93336446     0.12500
C1122       C  0.95529823  0.85944878  0.96928596    -0.23000
H1123       H  0.99548917  0.87684908  0.00247832     0.08100
C1124       C  0.06664627  0.91218432  0.00277702     0.04500
C1125       C  0.08310803  0.92791718  0.02215414    -0.20200
C1126       C  0.07916370  0.91573625  0.04485292    -0.12500
C1127       C  0.05938298  0.88633226  0.04766739     0.13200
C1128       C  0.04298365  0.87060471  0.02812190    -0.23000
C1129       C  0.07046289  0.92666100  0.97914821    -0.06000
H1130       H  0.09843178  0.95022590  0.01970522     0.14700
C1131       C  0.05427826  0.87147903  0.07124787    -0.16200
H1132       H  0.02693182  0.84845100  0.03029335     0.09000
H1133       H  0.95291370  0.86684399  0.98695067     0.06900
H1134       H  0.93634334  0.83817048  0.96633467     0.08100
H1135       H  0.95625208  0.87455046  0.95583555     0.07100
H1136       H  0.05511735  0.83936070  0.98400351     0.02000
H1137       H  0.07604952  0.87342315  0.96980775     0.02500
H1138       H  0.05786250  0.84194077  0.95214143     0.06000
H1139       H  0.08734137  0.94935769  0.97982926     0.05000
H1140       H  0.05050238  0.92522237  0.97389338    -0.00800
H1141       H  0.07635756  0.91649088  0.96530455     0.00700
H1142       H  0.04697568  0.88103271  0.08452620     0.04300
H1143       H  0.07401379  0.87306488  0.07745752     0.06300
H1144       H  0.03783282  0.84867794  0.06999758     0.07100
C1145       C  0.05580955  0.95854904  0.87831713    -0.22500
C1146       C  0.05924525  0.96801816  0.85477667     0.09500
C1147       C  0.04325289  0.94902271  0.83649040     0.09900
C1148       C  0.02271765  0.92109026  0.84246749    -0.17400
C1149       C  0.01793113  0.91221695  0.86625977    -0.27800
C1150       C  0.03523141  0.93081355  0.88435433     0.18200
C1151       C  0.07729822  0.99865272  0.85073671     0.12200
C1152       C  0.04764111  0.95833171  0.81089633    -0.12200
H1153       H  0.00955266  0.90646254  0.82867709     0.12500
C1154       C  0.03218136  0.92150797  0.90998173    -0.23000
H1155       H  0.06848131  0.97334846  0.89215556     0.08100
C1156       C  0.06561623  0.01579872  0.85205287     0.04500
C1157       C  0.08366214  0.04504761  0.85380793    -0.20200
C1158       C  0.11306881  0.05749805  0.85575183    -0.12500
C1159       C  0.12482061  0.04030561  0.85317818     0.13200
C1160       C  0.10664675  0.01102746  0.85040232    -0.23000
C1161       C  0.03410231  0.00312069  0.85369747    -0.06000
H1162       H  0.07452972  0.05806234  0.85557720     0.14700
C1163       C  0.15610857  0.05205475  0.85509908    -0.16200
H1164       H  0.11524197  0.99746270  0.84974647     0.09000
H1165       H  0.04851625  0.93843776  0.92143585     0.06900
H1166       H  0.03447129  0.90287545  0.91138838     0.08100
H1167       H  0.01125058  0.91596389  0.91705727     0.07100
H1168       H  0.06975344  0.96596079  0.80560807     0.02000
H1169       H  0.04355564  0.97566587  0.80839619     0.02500
H1170       H  0.03330670  0.94074008  0.79889685     0.06000
H1171       H  0.02861182  0.01961460  0.85510372     0.05000
H1172       H  0.02563643  0.98942095  0.86969441    -0.00800
H1173       H  0.02352767  0.99031747  0.83770022     0.00700
H1174       H  0.16387142  0.06182552  0.87280808     0.04300
H1175       H  0.16750082  0.06802759  0.84093881     0.06300
H1176       H  0.16123275  0.03535994  0.85301917     0.07100
C1177       C  0.00802136  0.83798835  0.72267694    -0.22500
C1178       C  0.97946824  0.82086199  0.72879198     0.09500
C1179       C  0.95920177  0.80613412  0.71102097     0.09900
C1180       C  0.96782170  0.80971777  0.68724651    -0.17400
C1181       C  0.99629394  0.82776642  0.68076248    -0.27800
C1182       C  0.01684145  0.84156102  0.69887894     0.18200
C1183       C  0.97120631  0.81867572  0.75398571     0.12200
C1184       C  0.92847224  0.78670920  0.71718152    -0.12200
H1185       H  0.95197536  0.79892008  0.67359459     0.12500
C1186       C  0.04803164  0.85959940  0.69357287    -0.23000
H1187       H  0.02341961  0.84879000  0.73665226     0.08100
C1188       C  0.97383307  0.80048042  0.76974607     0.04500
C1189       C  0.96577154  0.79915338  0.79352174    -0.20200
C1190       C  0.95529146  0.81572470  0.80183371    -0.12500
C1191       C  0.95366654  0.83478416  0.78615755     0.13200
C1192       C  0.96105230  0.83549000  0.76224283    -0.23000
C1193       C  0.98483263  0.78229105  0.76136041    -0.06000
H1194       H  0.96745589  0.78494158  0.80567529     0.14700
C1195       C  0.94593504  0.85579618  0.79414598    -0.16200
H1196       H  0.95964611  0.84984403  0.75005079     0.09000
H1197       H  0.06082888  0.86661629  0.71009303     0.06900
H1198       H  0.05275921  0.87889379  0.68370045     0.08100
H1199       H  0.05482818  0.84732631  0.68300609     0.07100
H1200       H  0.92025324  0.79882325  0.72598955     0.02000
H1201       H  0.92603766  0.76984740  0.72937858     0.02500
H1202       H  0.91545782  0.77647486  0.70114276     0.06000
H1203       H  0.98542471  0.76916677  0.77598120     0.05000
H1204       H  0.00661578  0.79580050  0.75432458    -0.00800
H1205       H  0.97098348  0.76796084  0.74710038     0.00700
H1206       H  0.96276178  0.87737400  0.78859557     0.04300
H1207       H  0.94389216  0.85648349  0.81364181     0.06300
H1208       H  0.92574055  0.85073851  0.78577230     0.07100
C1209       C  0.80550592  0.80186543  0.26541452    -0.22500
C1210       C  0.78183635  0.80147918  0.25639716     0.09500
C1211       C  0.76006363  0.79721015  0.27194679     0.09900
C1212       C  0.76328071  0.79519044  0.29649417    -0.17400
C1213       C  0.78770696  0.79707300  0.30583129    -0.27800
C1214       C  0.80875490  0.79967038  0.28993418     0.18200
C1215       C  0.78091604  0.80657248  0.23065761     0.12200
C1216       C  0.73378550  0.79543729  0.26263961    -0.12200
H1217       H  0.74699933  0.79291337  0.30851622     0.12500
C1218       C  0.83551601  0.80197212  0.29857212    -0.23000
H1219       H  0.82195265  0.80487497  0.25322271     0.08100
C1220       C  0.79397574  0.83423790  0.22131127     0.04500
C1221       C  0.79418065  0.83808557  0.19663527    -0.20200
C1222       C  0.78166052  0.81489300  0.18120284    -0.12500
C1223       C  0.76774479  0.78719174  0.19064697     0.13200
C1224       C  0.76767727  0.78340019  0.21530104    -0.23000
C1225       C  0.80790048  0.85963017  0.23736133    -0.06000
H1226       H  0.80492310  0.85928240  0.18928560     0.14700
C1227       C  0.75232908  0.76120946  0.17534214    -0.16200
H1228       H  0.75739210  0.76221994  0.22260176     0.09000
H1229       H  0.84956767  0.80408173  0.28363479     0.06900
H1230       H  0.83046240  0.78278125  0.30879594     0.08100
H1231       H  0.84735102  0.82098737  0.30983177     0.07100
H1232       H  0.72288871  0.77751379  0.25005095     0.02000
H1233       H  0.73946492  0.81532793  0.25326674     0.02500
H1234       H  0.71879761  0.79206090  0.27717376     0.06000
H1235       H  0.81711515  0.87968041  0.22714371     0.05000
H1236       H  0.82514660  0.85991898  0.24753771    -0.00800
H1237       H  0.79208895  0.85875469  0.24996871     0.00700
H1238       H  0.76209764  0.74829489  0.17741443     0.04300
H1239       H  0.75245508  0.76608269  0.15623177     0.06300
H1240       H  0.72990083  0.74847209  0.18106953     0.07100
C1241       C  0.87840665  0.81510166  0.48117762    -0.22500
C1242       C  0.90212484  0.81361918  0.47552124     0.09500
C1243       C  0.90766122  0.81055938  0.45162192     0.09900
C1244       C  0.88990036  0.81030905  0.43373813    -0.17400
C1245       C  0.86699440  0.81345449  0.43922748    -0.27800
C1246       C  0.86084233  0.81528659  0.46338610     0.18200
C1247       C  0.92206607  0.81815042  0.49492483     0.12200
C1248       C  0.93249318  0.80800476  0.44500436    -0.12200
H1249       H  0.89471741  0.80894869  0.41530138     0.12500
C1250       C  0.83598103  0.81754885  0.47074671    -0.23000
H1251       H  0.87434066  0.81732434  0.49962239     0.08100
C1252       C  0.94433546  0.84559590  0.50054537     0.04500
C1253       C  0.96077877  0.84973688  0.52072447    -0.20200
C1254       C  0.95502016  0.82727640  0.53610208    -0.12500
C1255       C  0.93269982  0.79962897  0.53025990     0.13200
C1256       C  0.91673171  0.79542709  0.50955522    -0.23000
C1257       C  0.94997036  0.87077392  0.48584744    -0.06000
H1258       H  0.97742244  0.87105427  0.52508237     0.14700
C1259       C  0.92523615  0.77449340  0.54572053    -0.16200
H1260       H  0.89930145  0.77449533  0.50520706     0.09000
H1261       H  0.83891811  0.83792424  0.46471815     0.06900
H1262       H  0.83340645  0.81664472  0.49035694     0.08100
H1263       H  0.81624477  0.79982911  0.46314834     0.07100
H1264       H  0.93032434  0.78899778  0.45364585     0.02000
H1265       H  0.95246581  0.82693649  0.45095755     0.02500
H1266       H  0.93389908  0.80598786  0.42549222     0.06000
H1267       H  0.96794462  0.89079521  0.49293736     0.05000
H1268       H  0.93100012  0.87257921  0.48584523    -0.00800
H1269       H  0.95512175  0.86838496  0.46729716     0.00700
H1270       H  0.91718541  0.77658335  0.56316035     0.04300
H1271       H  0.94413139  0.77286366  0.54834807     0.06300
H1272       H  0.90843863  0.75446653  0.53761203     0.07100
C1273       C  0.78789685  0.96263003  0.72884204    -0.22500
C1274       C  0.79587051  0.99049355  0.73407999     0.09500
C1275       C  0.79994419  0.00912322  0.71535624     0.09900
C1276       C  0.79642303  0.99966043  0.69179272    -0.17400
C1277       C  0.78865039  0.97179614  0.68621005    -0.27800
C1278       C  0.78411326  0.95292814  0.70521445     0.18200
C1279       C  0.80052032  0.00003630  0.75925359     0.12200
C1280       C  0.80770738  0.03897779  0.72027786    -0.12200
H1281       H  0.80007399  0.01442148  0.67758797     0.12500
C1282       C  0.77491399  0.92250298  0.70104348    -0.23000
H1283       H  0.78475504  0.94845305  0.74337974     0.08100
C1284       C  0.77785735  0.99358119  0.77465046     0.04500
C1285       C  0.78345297  0.00311982  0.79828333    -0.20200
C1286       C  0.81125748  0.01947859  0.80685530    -0.12500
C1287       C  0.83402809  0.02629714  0.79115689     0.13200
C1288       C  0.82828228  0.01631289  0.76765242    -0.23000
C1289       C  0.74780041  0.97695738  0.76601965    -0.06000
H1290       H  0.76594979  0.99786976  0.81011961     0.14700
C1291       C  0.86446117  0.04335103  0.79901389    -0.16200
H1292       H  0.84551175  0.02121975  0.75569123     0.09000
H1293       H  0.75486688  0.91178666  0.69083983     0.06900
H1294       H  0.77116023  0.91076810  0.71799389     0.08100
H1295       H  0.79154711  0.92128172  0.69119389     0.07100
H1296       H  0.82831724  0.05058261  0.72958481     0.02000
H1297       H  0.79121033  0.03874748  0.73158687     0.02500
H1298       H  0.80953010  0.05062962  0.70365426     0.06000
H1299       H  0.73260449  0.97409520  0.78020647     0.05000
H1300       H  0.74257650  0.95574345  0.76005044    -0.00800
H1301       H  0.74510106  0.98823405  0.75093485     0.00700
H1302       H  0.86782630  0.03303159  0.81448697     0.04300
H1303       H  0.87012257  0.06504726  0.80385636     0.06300
H1304       H  0.87916089  0.04532808  0.78470602     0.07100
C1305       C  0.77488686  0.85465749  0.53165970    -0.22500
C1306       C  0.75745252  0.85698452  0.51512204     0.09500
C1307       C  0.74084600  0.86811412  0.52223135     0.09900
C1308       C  0.74494655  0.88011406  0.54497788    -0.17400
C1309       C  0.76545418  0.88124732  0.56030429    -0.27800
C1310       C  0.77924741  0.86679440  0.55414743     0.18200
C1311       C  0.76178432  0.85294535  0.48987150     0.12200
C1312       C  0.71981954  0.86832994  0.50550881    -0.12200
H1313       H  0.73410506  0.89086410  0.54987590     0.12500
C1314       C  0.79996597  0.86519131  0.57033139    -0.23000
H1315       H  0.78710767  0.84548398  0.52626746     0.08100
C1316       C  0.78152868  0.87627741  0.47604480     0.04500
C1317       C  0.78913002  0.87165777  0.45356295    -0.20200
C1318       C  0.77830557  0.84425863  0.44477957    -0.12500
C1319       C  0.75877519  0.82081419  0.45884319     0.13200
C1320       C  0.75051374  0.82554023  0.48111441    -0.23000
C1321       C  0.79607624  0.90599734  0.48563994    -0.06000
H1322       H  0.80452709  0.88963141  0.44314803     0.14700
C1323       C  0.74819977  0.79084248  0.45141821    -0.16200
H1324       H  0.73628967  0.80776504  0.49231226     0.09000
H1325       H  0.82114292  0.87592511  0.56183002     0.06900
H1326       H  0.79289041  0.84272564  0.57359129     0.08100
H1327       H  0.80197266  0.87514282  0.58778651     0.07100
H1328       H  0.70383985  0.84632511  0.50037047     0.02000
H1329       H  0.73054921  0.88060513  0.48924283     0.02500
H1330       H  0.70863820  0.87785281  0.51388087     0.06000
H1331       H  0.81136648  0.92164084  0.47266798     0.05000
H1332       H  0.80787554  0.90750341  0.50204261    -0.00800
H1333       H  0.78036470  0.91192332  0.48982296     0.00700
H1334       H  0.76639384  0.78819922  0.44824896     0.04300
H1335       H  0.73539781  0.78566179  0.43500616     0.06300
H1336       H  0.73466984  0.77539127  0.46530556     0.07100
C1337       C  0.84502558  0.86854372  0.64088508    -0.22500
C1338       C  0.87444463  0.88521439  0.63890097     0.09500
C1339       C  0.88793791  0.91484262  0.63808681     0.09900
C1340       C  0.87150330  0.92705238  0.63657376    -0.17400
C1341       C  0.84186205  0.91030637  0.63571813    -0.27800
C1342       C  0.82841634  0.88076549  0.63983902     0.18200
C1343       C  0.89048108  0.87163539  0.63327277     0.12200
C1344       C  0.91969724  0.93352233  0.63738215    -0.12200
H1345       H  0.88197675  0.94973457  0.63451937     0.12500
C1346       C  0.79683772  0.86175387  0.64253866    -0.23000
H1347       H  0.83501267  0.84580516  0.64199336     0.08100
C1348       C  0.90470356  0.86562034  0.65076917     0.04500
C1349       C  0.92394928  0.85786638  0.64363988    -0.20200
C1350       C  0.92918865  0.85638473  0.61943310    -0.12500
C1351       C  0.91310220  0.86017013  0.60202307     0.13200
C1352       C  0.89387513  0.86771893  0.60922626    -0.23000
C1353       C  0.89997880  0.86803452  0.67676260    -0.06000
H1354       H  0.93596756  0.85441860  0.65690526     0.14700
C1355       C  0.91606221  0.85629401  0.57584320    -0.16200
H1356       H  0.88239444  0.87195006  0.59598817     0.09000
H1357       H  0.79057007  0.83962928  0.64650003     0.06900
H1358       H  0.78585045  0.86140210  0.62602136     0.08100
H1359       H  0.78946103  0.86926873  0.65750639     0.07100
H1360       H  0.92814599  0.92866483  0.62144130     0.02000
H1361       H  0.92886207  0.92999002  0.65354871     0.02500
H1362       H  0.92673139  0.95625334  0.63669719     0.06000
H1363       H  0.91262749  0.86238641  0.68812829     0.05000
H1364       H  0.87731051  0.85352571  0.68114907    -0.00800
H1365       H  0.90602714  0.88997946  0.68102411     0.00700
H1366       H  0.90019464  0.85787875  0.56509957     0.04300
H1367       H  0.91292272  0.83511057  0.57273402     0.06300
H1368       H  0.93722414  0.87281279  0.56927425     0.07100
C1369       C  0.18238118  0.00617003  0.21362364    -0.22500
C1370       C  0.15764858  0.99185242  0.22727126     0.09500
C1371       C  0.13237068  0.97041766  0.21674235     0.09900
C1372       C  0.13204510  0.96505857  0.19238610    -0.17400
C1373       C  0.15643920  0.98049407  0.17844317    -0.27800
C1374       C  0.18223998  0.00032007  0.18941459     0.18200
C1375       C  0.15855960  0.99962469  0.25252406     0.12200
C1376       C  0.10573459  0.95329835  0.23113408    -0.12200
H1377       H  0.11230410  0.94974864  0.18396326     0.12500
C1378       C  0.21000514  0.01522991  0.17627512    -0.23000
H1379       H  0.20191088  0.02215898  0.22188712     0.08100
C1380       C  0.17224587  0.99257215  0.26979945     0.04500
C1381       C  0.17085253  0.99872570  0.29370202    -0.20200
C1382       C  0.15605107  0.01164033  0.30066806    -0.12500
C1383       C  0.14237612  0.01877183  0.28337963     0.13200
C1384       C  0.14432419  0.01317417  0.25941849    -0.23000
C1385       C  0.18753175  0.97777902  0.26317219    -0.06000
H1386       H  0.18105286  0.99309218  0.30712262     0.14700
C1387       C  0.12431961  0.03076103  0.28955560    -0.16200
H1388       H  0.13379532  0.01848530  0.24607207     0.09000
H1389       H  0.22514758  0.01095730  0.18532615     0.06900
H1390       H  0.21876614  0.03833174  0.17624869     0.08100
H1391       H  0.20817169  0.00803345  0.15768611     0.07100
H1392       H  0.09860430  0.96712831  0.23826832     0.02000
H1393       H  0.10974005  0.94282383  0.24610641     0.02500
H1394       H  0.08828438  0.93666319  0.22026489     0.06000
H1395       H  0.19599044  0.97278356  0.27905185     0.05000
H1396       H  0.20559332  0.99143185  0.25128229    -0.00800
H1397       H  0.17282984  0.95766610  0.25396117     0.00700
H1398       H  0.13336863  0.05192572  0.28128880     0.04300
H1399       H  0.12242730  0.03282834  0.30890958     0.06300
H1400       H  0.10264394  0.01663847  0.28256542     0.07100
C1401       C  0.08584147  0.93291344  0.47557714    -0.22500
C1402       C  0.10840948  0.93141782  0.48469187     0.09500
C1403       C  0.13356713  0.94246653  0.47156371     0.09900
C1404       C  0.13617604  0.95639893  0.44999448    -0.17400
C1405       C  0.11408985  0.95936338  0.44128417    -0.27800
C1406       C  0.08816996  0.94661193  0.45406937     0.18200
C1407       C  0.10509294  0.92011180  0.50897909     0.12200
C1408       C  0.15741439  0.93936647  0.48023826    -0.12200
H1409       H  0.15573487  0.96534648  0.44011845     0.12500
C1410       C  0.06260552  0.94688744  0.44542403    -0.23000
H1411       H  0.06647189  0.92392862  0.48582006     0.08100
C1412       C  0.11096908  0.93813710  0.52859533     0.04500
C1413       C  0.09851603  0.92639684  0.55055387    -0.20200
C1414       C  0.08024137  0.89720774  0.55313389    -0.12500
C1415       C  0.07654902  0.87898152  0.53420459     0.13200
C1416       C  0.08923481  0.89073621  0.51220637    -0.23000
C1417       C  0.12835179  0.96981333  0.52588867    -0.06000
H1418       H  0.10111348  0.94015185  0.56525094     0.14700
C1419       C  0.05716594  0.84742945  0.53657177    -0.16200
H1420       H  0.08464004  0.87710375  0.49695343     0.09000
H1421       H  0.04389273  0.93406186  0.45699325     0.06900
H1422       H  0.05692046  0.93787297  0.42728141     0.08100
H1423       H  0.06691846  0.96876077  0.44544260     0.07100
H1424       H  0.14991735  0.91660466  0.48210027     0.02000
H1425       H  0.16498512  0.94975379  0.49773964     0.02500
H1426       H  0.17554958  0.94902718  0.46768570     0.06000
H1427       H  0.13041236  0.98068011  0.54298293     0.05000
H1428       H  0.11830522  0.97686433  0.51286046    -0.00800
H1429       H  0.14989473  0.97646689  0.51963004     0.00700
H1430       H  0.03541414  0.84212652  0.54090453     0.04300
H1431       H  0.06484502  0.83943864  0.55095644     0.06300
H1432       H  0.05625341  0.83635004  0.51988452     0.07100
C1433       C  0.01268690  0.92752864  0.32875861    -0.22500
C1434       C  0.99505686  0.90633626  0.34499664     0.09500
C1435       C  0.00680493  0.90227415  0.36577434     0.09900
C1436       C  0.03549874  0.92085385  0.37067342    -0.17400
C1437       C  0.05241024  0.94375367  0.35567971    -0.27800
C1438       C  0.04129116  0.94651715  0.33396997     0.18200
C1439       C  0.96401632  0.89248265  0.34279137     0.12200
C1440       C  0.98867503  0.87971287  0.38371043    -0.12200
H1441       H  0.04426735  0.91876582  0.38718764     0.12500
C1442       C  0.05887520  0.96956282  0.31629079    -0.23000
H1443       H  0.00366852  0.93044850  0.31274295     0.08100
C1444       C  0.95079265  0.90724435  0.34950266     0.04500
C1445       C  0.92166063  0.89224424  0.35344784    -0.20200
C1446       C  0.90546356  0.86267613  0.35198977    -0.12500
C1447       C  0.91846105  0.84793129  0.34391370     0.13200
C1448       C  0.94752897  0.86332206  0.33874289    -0.23000
C1449       C  0.96764304  0.93856033  0.35434663    -0.06000
H1450       H  0.91173806  0.90357441  0.35937305     0.14700
C1451       C  0.90368733  0.81617371  0.34250940    -0.16200
H1452       H  0.95790714  0.85213891  0.33367814     0.09000
H1453       H  0.04957393  0.98278086  0.31342934     0.06900
H1454       H  0.05911812  0.95996508  0.29908044     0.08100
H1455       H  0.08106824  0.98340967  0.32213090     0.07100
H1456       H  0.97914337  0.85855278  0.37543747     0.02000
H1457       H  0.97162003  0.88282675  0.39019381     0.02500
H1458       H  0.00111379  0.88020428  0.39933526     0.06000
H1459       H  0.95398821  0.94647487  0.36034223     0.05000
H1460       H  0.97869929  0.95021218  0.33793145    -0.00800
H1461       H  0.98341647  0.94329343  0.36850846     0.00700
H1462       H  0.90379811  0.80987565  0.32382392     0.04300
H1463       H  0.88166723  0.80470138  0.34883218     0.06300
H1464       H  0.91518249  0.80889505  0.35363008     0.07100
C1465       C  0.15740339  0.19478091  0.77180343    -0.22500
C1466       C  0.16396506  0.18036138  0.75523691     0.09500
C1467       C  0.17430111  0.16340488  0.76321653     0.09900
C1468       C  0.17721619  0.16071229  0.78775906    -0.17400
C1469       C  0.17024460  0.17479792  0.80465777    -0.27800
C1470       C  0.16044331  0.19238900  0.79634208     0.18200
C1471       C  0.15902307  0.18276802  0.72963104     0.12200
C1472       C  0.18192045  0.14792498  0.74577543    -0.12200
H1473       H  0.18487590  0.14738018  0.79374067     0.12500
C1474       C  0.15233269  0.20826396  0.81293323    -0.23000
H1475       H  0.14949060  0.20775529  0.76541569     0.08100
C1476       C  0.13218585  0.16529392  0.71930482     0.04500
C1477       C  0.12834270  0.16830317  0.69506175    -0.20200
C1478       C  0.15072755  0.18842899  0.68088394    -0.12500
C1479       C  0.17747970  0.20633947  0.69135174     0.13200
C1480       C  0.18131130  0.20323679  0.71563581    -0.23000
C1481       C  0.10762586  0.14345558  0.73389233    -0.06000
H1482       H  0.10784792  0.15463188  0.68705119     0.14700
C1483       C  0.20168788  0.22941772  0.67725571    -0.16200
H1484       H  0.20169806  0.21686599  0.72379436     0.09000
H1485       H  0.14442392  0.22013521  0.80317497     0.06900
H1486       H  0.17101522  0.22388354  0.82331276     0.08100
H1487       H  0.13522123  0.19325419  0.82504794     0.07100
H1488       H  0.19886379  0.16330175  0.73369793     0.02000
H1489       H  0.16310020  0.13317734  0.73508891     0.02500
H1490       H  0.18963648  0.13549604  0.75487807     0.06000
H1491       H  0.08824697  0.13125418  0.72299784     0.05000
H1492       H  0.10298837  0.15395733  0.74839021    -0.00800
H1493       H  0.11282383  0.12839137  0.74174290     0.00700
H1494       H  0.22048455  0.24248425  0.68857565     0.04300
H1495       H  0.19527030  0.24352358  0.66930580     0.06300
H1496       H  0.20802716  0.22015261  0.66294020     0.07100
C1497       C  0.16654849  0.12932814  0.45044965    -0.22500
C1498       C  0.17002858  0.12089856  0.47298428     0.09500
C1499       C  0.17039019  0.09582579  0.47547072     0.09900
C1500       C  0.16588023  0.07901183  0.45543843    -0.17400
C1501       C  0.16047494  0.08644549  0.43310633    -0.27800
C1502       C  0.16108998  0.11215689  0.43050608     0.18200
C1503       C  0.16440841  0.13330941  0.49383505     0.12200
C1504       C  0.17376676  0.08597125  0.49952255    -0.12200
H1505       H  0.16521168  0.05925827  0.45741123     0.12500
C1506       C  0.15340367  0.12107331  0.40780377    -0.23000
H1507       H  0.16533669  0.14812008  0.44883237     0.08100
C1508       C  0.18572227  0.15491316  0.50788207     0.04500
C1509       C  0.17801100  0.16336193  0.52867777    -0.20200
C1510       C  0.14945017  0.15094325  0.53525678    -0.12500
C1511       C  0.12819796  0.12989526  0.52042644     0.13200
C1512       C  0.13608428  0.12156245  0.49998917    -0.23000
C1513       C  0.21631206  0.16890483  0.50088123    -0.06000
H1514       H  0.19426485  0.17955813  0.53986731     0.14700
C1515       C  0.09710838  0.11480265  0.52636549    -0.16200
H1516       H  0.11995365  0.10502976  0.48888643     0.09000
H1517       H  0.17168477  0.14148897  0.40160524     0.06900
H1518       H  0.13533305  0.12388096  0.41121288     0.08100
H1519       H  0.14691952  0.10566893  0.39323062     0.07100
H1520       H  0.15643747  0.08266865  0.51154787     0.02000
H1521       H  0.19431492  0.10203904  0.50736198     0.02500
H1522       H  0.17321745  0.06574932  0.49836161     0.06000
H1523       H  0.23028014  0.18557806  0.51371816     0.05000
H1524       H  0.21951857  0.17882778  0.48309059    -0.00800
H1525       H  0.22266424  0.15304303  0.50017235     0.00700
H1526       H  0.08975558  0.12989641  0.52603403     0.04300
H1527       H  0.09321109  0.10468855  0.54411747     0.06300
H1528       H  0.08403615  0.09789883  0.51337243     0.07100
C1529       C  0.92181191  0.07062130  0.64596866    -0.22500
C1530       C  0.94218514  0.07871418  0.62804092     0.09500
C1531       C  0.93392611  0.06682282  0.60519226     0.09900
C1532       C  0.90564011  0.04619660  0.60104684    -0.17400
C1533       C  0.88512494  0.03719241  0.61907326    -0.27800
C1534       C  0.89318818  0.05022660  0.64169227     0.18200
C1535       C  0.97242800  0.09852574  0.63335913     0.12200
C1536       C  0.95507856  0.07549757  0.58522881    -0.12200
H1537       H  0.89957538  0.03677274  0.58354488     0.12500
C1538       C  0.87207559  0.04235553  0.66151061    -0.23000
H1539       H  0.92842305  0.08008084  0.66340391     0.08100
C1540       C  0.98598737  0.12735735  0.62726155     0.04500
C1541       C  0.01561529  0.14363268  0.62646786    -0.20200
C1542       C  0.03179073  0.13149575  0.63140208    -0.12500
C1543       C  0.01816739  0.10347721  0.64019323     0.13200
C1544       C  0.98854385  0.08729367  0.64101384    -0.23000
C1545       C  0.96913219  0.14048824  0.62054948    -0.06000
H1546       H  0.02602653  0.16524370  0.62011421     0.14700
C1547       C  0.03465967  0.09044228  0.64846809    -0.16200
H1548       H  0.97787254  0.06523679  0.64616337     0.09000
H1549       H  0.85602444  0.04751357  0.65628795     0.06900
H1550       H  0.88227879  0.05412562  0.67807418     0.08100
H1551       H  0.86152491  0.01944423  0.66549392     0.07100
H1552       H  0.97170157  0.07106278  0.59020361     0.02000
H1553       H  0.96506451  0.09839314  0.58150072     0.02500
H1554       H  0.94501927  0.06391204  0.56855733     0.06000
H1555       H  0.98301984  0.16326300  0.61618949     0.05000
H1556       H  0.95528985  0.13845245  0.63562966    -0.00800
H1557       H  0.95580487  0.12971101  0.60480927     0.00700
H1558       H  0.02062477  0.06927001  0.65650130     0.04300
H1559       H  0.05022422  0.10413024  0.66214286     0.06300
H1560       H  0.04583623  0.08767340  0.63340378     0.07100
C1561       C  0.10507134  0.04369759  0.60774314    -0.22500
C1562       C  0.09823840  0.03494127  0.63141101     0.09500
C1563       C  0.10267334  0.05474804  0.64912188     0.09900
C1564       C  0.11196469  0.08266574  0.64238873    -0.17400
C1565       C  0.11683025  0.09086587  0.61839430    -0.27800
C1566       C  0.11461100  0.07148486  0.60099248     0.18200
C1567       C  0.08379319  0.00433090  0.63620922     0.12200
C1568       C  0.09718365  0.04628133  0.67489951    -0.12200
H1569       H  0.11411077  0.09773213  0.65570088     0.12500
C1570       C  0.12218498  0.07932735  0.57521093    -0.23000
H1571       H  0.10211136  0.02842037  0.59426224     0.08100
C1572       C  0.05416145  0.98731901  0.63459736     0.04500
C1573       C  0.04137181  0.95799902  0.63315992    -0.20200
C1574       C  0.05754318  0.94523764  0.63195069    -0.12500
C1575       C  0.08719097  0.96226543  0.63552990     0.13200
C1576       C  0.09986623  0.99166706  0.63774996    -0.23000
C1577       C  0.03614632  0.00017570  0.63243224    -0.06000
H1578       H  0.01866046  0.94521907  0.63105883     0.14700
C1579       C  0.10594969  0.95018732  0.63563574    -0.16200
H1580       H  0.12266947  0.00507529  0.63896568     0.09000
H1581       H  0.10305289  0.06715536  0.56404339     0.06900
H1582       H  0.13810863  0.07409729  0.56970187     0.08100
H1583       H  0.13151504  0.10211790  0.57168238     0.07100
H1584       H  0.11082991  0.03823963  0.68057842     0.02000
H1585       H  0.07475897  0.02944959  0.67760274     0.02500
H1586       H  0.10183468  0.06440555  0.68643358     0.06000
H1587       H  0.01333957  0.98378260  0.63104842     0.05000
H1588       H  0.04224243  0.01360991  0.61625770    -0.00800
H1589       H  0.03899903  0.01328751  0.64822685     0.00700
H1590       H  0.10531343  0.94089435  0.61803811     0.04300
H1591       H  0.09891298  0.93382788  0.64972602     0.06300
H1592       H  0.12832315  0.96662920  0.63927492     0.07100
C1593       C  0.00593157  0.20193473  0.22771363    -0.22500
C1594       C  0.98220756  0.17763318  0.23700364     0.09500
C1595       C  0.96461987  0.15517189  0.22172248     0.09900
C1596       C  0.97101255  0.15762499  0.19743850    -0.17400
C1597       C  0.99470554  0.18194847  0.18785143    -0.27800
C1598       C  0.01235551  0.20461153  0.20330019     0.18200
C1599       C  0.97620001  0.17595586  0.26282795     0.12200
C1600       C  0.93943712  0.12833615  0.23110976    -0.12200
H1601       H  0.95750047  0.14007713  0.18584378     0.12500
C1602       C  0.03732351  0.23230791  0.19497553    -0.23000
H1603       H  0.01931406  0.21917997  0.23960748     0.08100
C1604       C  0.99114785  0.16955436  0.27930381     0.04500
C1605       C  0.98447859  0.16772840  0.30350322    -0.20200
C1606       C  0.96263657  0.17129136  0.31161738    -0.12500
C1607       C  0.94763860  0.17773594  0.29511499     0.13200
C1608       C  0.95476886  0.18017730  0.27087335    -0.23000
C1609       C  0.01354935  0.16382784  0.27129413    -0.06000
H1610       H  0.99589419  0.16267416  0.31614845     0.14700
C1611       C  0.92477299  0.18283496  0.30299525    -0.16200
H1612       H  0.94344109  0.18514422  0.25806681     0.09000
H1613       H  0.05700747  0.23499997  0.20260607     0.06900
H1614       H  0.03497151  0.24989893  0.20124582     0.08100
H1615       H  0.03954619  0.23439075  0.17546337     0.07100
H1616       H  0.92422289  0.13300521  0.23941860     0.02000
H1617       H  0.94644741  0.11866568  0.24456632     0.02500
H1618       H  0.92823853  0.11264188  0.21677543     0.06000
H1619       H  0.02289200  0.15875686  0.28649720     0.05000
H1620       H  0.03081483  0.18267101  0.26208179    -0.00800
H1621       H  0.00416974  0.14559138  0.25893883     0.00700
H1622       H  0.91634084  0.18908361  0.28788735     0.04300
H1623       H  0.93336042  0.20006765  0.31633089     0.06300
H1624       H  0.90690617  0.16329885  0.31088735     0.07100
C1625       C  0.86233848  0.08682772  0.48100614    -0.22500
C1626       C  0.84253039  0.05819346  0.47704349     0.09500
C1627       C  0.83641582  0.04773144  0.45361705     0.09900
C1628       C  0.85239905  0.06559723  0.43476607    -0.17400
C1629       C  0.87451713  0.09338076  0.43910263    -0.27800
C1630       C  0.87844339  0.10463043  0.46225589     0.18200
C1631       C  0.83283526  0.03885767  0.49768413     0.12200
C1632       C  0.81430874  0.01731646  0.44879003    -0.12200
H1633       H  0.84935555  0.05708845  0.41694527     0.12500
C1634       C  0.89995816  0.13506391  0.46781219    -0.23000
H1635       H  0.86664074  0.09484525  0.49902415     0.08100
C1636       C  0.84888810  0.02741465  0.50554019     0.04500
C1637       C  0.84030615  0.01033784  0.52583582    -0.20200
C1638       C  0.81647085  0.00498045  0.53886662    -0.12500
C1639       C  0.79981393  0.01570343  0.53057682     0.13200
C1640       C  0.80834428  0.03269502  0.51004534    -0.23000
C1641       C  0.87565801  0.03401245  0.49294324    -0.06000
H1642       H  0.85313070  0.00225159  0.53225710     0.14700
C1643       C  0.77276994  0.00918932  0.54252984    -0.16200
H1644       H  0.79595557  0.04132545  0.50373303     0.09000
H1645       H  0.91564783  0.13620914  0.48066203     0.06900
H1646       H  0.88913740  0.14507790  0.47593375     0.08100
H1647       H  0.91129903  0.14756542  0.45179656     0.07100
H1648       H  0.79352982  0.01273417  0.45551294     0.02000
H1649       H  0.81994304  0.00318928  0.45786592     0.02500
H1650       H  0.81225322  0.01251939  0.42949061     0.06000
H1651       H  0.88562714  0.02334399  0.50148557     0.05000
H1652       H  0.89113584  0.05711834  0.49329037    -0.00800
H1653       H  0.87096434  0.02685196  0.47421400     0.00700
H1654       H  0.77505345  0.02899034  0.54938276     0.04300
H1655       H  0.76660470  0.99399981  0.55740179     0.06300
H1656       H  0.75526097  0.99963318  0.52943617     0.07100
C1657       C  0.00826186  0.17241020  0.49683157    -0.22500
C1658       C  0.02879612  0.20109121  0.49900316     0.09500
C1659       C  0.03274874  0.21984546  0.48041266     0.09900
C1660       C  0.01674988  0.20915263  0.45949263    -0.17400
C1661       C  0.99738560  0.18001672  0.45662913    -0.27800
C1662       C  0.99262390  0.16149514  0.47595765     0.18200
C1663       C  0.04865781  0.20922401  0.51913398     0.12200
C1664       C  0.05403024  0.25097322  0.48262293    -0.12200
H1665       H  0.02034813  0.22344885  0.44493920     0.12500
C1666       C  0.97163650  0.13007500  0.47490791    -0.23000
H1667       H  0.00563982  0.15815004  0.51116940     0.08100
C1668       C  0.03962675  0.20740374  0.54288960     0.04500
C1669       C  0.05572568  0.20569935  0.56127901    -0.20200
C1670       C  0.08044777  0.20577373  0.55624266    -0.12500
C1671       C  0.09086308  0.21042178  0.53277738     0.13200
C1672       C  0.07485928  0.21220976  0.51445376    -0.23000
C1673       C  0.01252156  0.20611265  0.54866933    -0.06000
H1674       H  0.04795685  0.20223802  0.57942258     0.14700
C1675       C  0.11809555  0.21204588  0.52692473    -0.16200
H1676       H  0.08164940  0.21350168  0.49616191     0.09000
H1677       H  0.96909907  0.11971332  0.49240932     0.06900
H1678       H  0.97893540  0.12001236  0.46217099     0.08100
H1679       H  0.95061570  0.12590991  0.46953666     0.07100
H1680       H  0.07554534  0.25468536  0.48491220     0.02000
H1681       H  0.04873836  0.25948389  0.49826885     0.02500
H1682       H  0.05423194  0.26279021  0.46661898     0.06000
H1683       H  0.00888250  0.20521273  0.56815099     0.05000
H1684       H  0.99430235  0.18707564  0.54063404    -0.00800
H1685       H  0.01347736  0.22524351  0.54157058     0.00700
H1686       H  0.11646283  0.19186381  0.53151369     0.04300
H1687       H  0.13552145  0.22949712  0.53715254     0.06300
H1688       H  0.12335401  0.21617240  0.50772405     0.07100
C1689       C  0.89492820  0.00733025  0.35539572    -0.22500
C1690       C  0.86725101  0.99494707  0.34677063     0.09500
C1691       C  0.85622504  0.01227668  0.34189369     0.09900
C1692       C  0.87238515  0.04119594  0.34743574    -0.17400
C1693       C  0.89918860  0.05305695  0.35784307    -0.27800
C1694       C  0.91118507  0.03619462  0.36072166     0.18200
C1695       C  0.84942553  0.96358189  0.34639402     0.12200
C1696       C  0.82736440  0.00027246  0.33111352    -0.12200
H1697       H  0.86337672  0.05422013  0.34491233     0.12500
C1698       C  0.94106036  0.04840147  0.36941702    -0.23000
H1699       H  0.90337308  0.99402227  0.35917058     0.08100
C1700       C  0.85649916  0.94707589  0.33239730     0.04500
C1701       C  0.84372167  0.91812147  0.33738782    -0.20200
C1702       C  0.82383794  0.90532123  0.35580055    -0.12500
C1703       C  0.81470328  0.92119967  0.36810121     0.13200
C1704       C  0.82778492  0.95021187  0.36339769    -0.23000
C1705       C  0.87801505  0.96005383  0.31268690    -0.06000
H1706       H  0.85060361  0.90579112  0.32794078     0.14700
C1707       C  0.79298743  0.90816701  0.38762996    -0.16200
H1708       H  0.82259071  0.96289629  0.37430780     0.09000
H1709       H  0.95584351  0.06670913  0.35814592     0.06900
H1710       H  0.94762327  0.03267456  0.36856555     0.08100
H1711       H  0.94302175  0.05519321  0.38817806     0.07100
H1712       H  0.81085434  0.98445196  0.34318505     0.02000
H1713       H  0.82641284  0.99007096  0.31391675     0.02500
H1714       H  0.82247520  0.01695326  0.32773102     0.06000
H1715       H  0.88004239  0.94385202  0.30293159     0.05000
H1716       H  0.89910675  0.97567668  0.31988484    -0.00800
H1717       H  0.87147578  0.97071397  0.29981602     0.00700
H1718       H  0.80066650  0.90003415  0.40185768     0.04300
H1719       H  0.77289893  0.89049831  0.38036051     0.06300
H1720       H  0.78857588  0.92368411  0.39568432     0.07100
C1721       C  0.05573370  0.07496801  0.35369425    -0.22500
C1722       C  0.07241931  0.10438244  0.35159696     0.09500
C1723       C  0.10178350  0.11748531  0.34798687     0.09900
C1724       C  0.11420326  0.10098777  0.34874210    -0.17400
C1725       C  0.09773105  0.07182177  0.35328416    -0.27800
C1726       C  0.06796695  0.05847579  0.35448899     0.18200
C1727       C  0.05876070  0.12066084  0.35651837     0.12200
C1728       C  0.11988245  0.14884347  0.34393232    -0.12200
H1729       H  0.13697073  0.11118009  0.34754191     0.12500
C1730       C  0.04895603  0.02687347  0.35702182    -0.23000
H1731       H  0.03310827  0.06502547  0.35609757     0.08100
C1732       C  0.03971505  0.12126665  0.34035092     0.04500
C1733       C  0.02224797  0.13096774  0.34806588    -0.20200
C1734       C  0.02366800  0.14020069  0.37148825    -0.12500
C1735       C  0.04396219  0.14126208  0.38721867     0.13200
C1736       C  0.06132197  0.13149107  0.37949786    -0.23000
C1737       C  0.03729796  0.11089521  0.31526506    -0.06000
H1738       H  0.00637321  0.12988939  0.33619456     0.14700
C1739       C  0.04659392  0.15082151  0.41265308    -0.16200
H1740       H  0.07578279  0.13073081  0.39194899     0.09000
H1741       H  0.02632479  0.01995873  0.35525339     0.06900
H1742       H  0.05160064  0.01976332  0.37470327     0.08100
H1743       H  0.05401482  0.01628823  0.34293374     0.07100
H1744       H  0.11865134  0.16031726  0.35953958     0.02000
H1745       H  0.11233036  0.15467381  0.32793700     0.02500
H1746       H  0.14237220  0.15571824  0.34108123     0.06000
H1747       H  0.02163636  0.11318446  0.30485902     0.05000
H1748       H  0.03053123  0.08824449  0.31530801    -0.00800
H1749       H  0.05811083  0.12331519  0.30625342     0.00700
H1750       H  0.04163588  0.13300982  0.42477207     0.04300
H1751       H  0.03230420  0.15846260  0.41709638     0.06300
H1752       H  0.06855853  0.16839904  0.41600219     0.07100
C1753       C  0.41253465  0.56236323  0.16761124    -0.22500
C1754       C  0.43842454  0.58784934  0.17030319     0.09500
C1755       C  0.44925532  0.59721518  0.19341093     0.09900
C1756       C  0.43288839  0.58197653  0.21329305    -0.17400
C1757       C  0.40587330  0.55785912  0.21048271    -0.27800
C1758       C  0.39610579  0.54729609  0.18739479     0.18200
C1759       C  0.45005955  0.60695944  0.14933538     0.12200
C1760       C  0.47746431  0.62395478  0.19703836    -0.12200
H1761       H  0.44023240  0.59014792  0.23101610     0.12500
C1762       C  0.36769207  0.52101697  0.18303525    -0.23000
H1763       H  0.40408222  0.55523914  0.14992441     0.08100
C1764       C  0.46279097  0.60191205  0.12981934     0.04500
C1765       C  0.46947356  0.61876904  0.10921652    -0.20200
C1766       C  0.46293218  0.64000114  0.10750075    -0.12500
C1767       C  0.45118897  0.64562839  0.12759542     0.13200
C1768       C  0.44506230  0.62911159  0.14811844    -0.23000
C1769       C  0.46898970  0.57862264  0.13066755    -0.06000
H1770       H  0.47868977  0.61452039  0.09404842     0.14700
C1771       C  0.44482127  0.66889325  0.12782386    -0.16200
H1772       H  0.43514217  0.63274162  0.16311946     0.09000
H1773       H  0.37043948  0.50600629  0.17212692     0.06900
H1774       H  0.35390752  0.52662227  0.17331862     0.08100
H1775       H  0.35687486  0.50992035  0.19969383     0.07100
H1776       H  0.47715639  0.64233163  0.18971376     0.02000
H1777       H  0.49417017  0.62217250  0.18789758     0.02500
H1778       H  0.48298053  0.62803214  0.21617062     0.06000
H1779       H  0.47938752  0.57779013  0.11409103     0.05000
H1780       H  0.44906396  0.55792238  0.13295110    -0.00800
H1781       H  0.48326150  0.58214779  0.14580693     0.00700
H1782       H  0.43823957  0.67172720  0.14571560     0.04300
H1783       H  0.42724010  0.66383052  0.11548784     0.06300
H1784       H  0.46390726  0.68919608  0.12265318     0.07100
C1785       C  0.61465569  0.71543802  0.05615090    -0.22500
C1786       C  0.63003779  0.74202842  0.06704930     0.09500
C1787       C  0.61696951  0.75765633  0.07071023     0.09900
C1788       C  0.58920562  0.74679382  0.06292432    -0.17400
C1789       C  0.57375249  0.72052909  0.05136469    -0.27800
C1790       C  0.58662144  0.70438021  0.04832454     0.18200
C1791       C  0.66011883  0.75396509  0.07392147     0.12200
C1792       C  0.63233314  0.78592008  0.08295113    -0.12200
H1793       H  0.57953805  0.75912121  0.06593227     0.12500
C1794       C  0.57142564  0.67591923  0.03643607    -0.23000
H1795       H  0.62478744  0.70348163  0.05350414     0.08100
C1796       C  0.66774301  0.74667811  0.09549549     0.04500
C1797       C  0.69630362  0.76137255  0.10258208    -0.20200
C1798       C  0.71732103  0.78348812  0.08874041    -0.12500
C1799       C  0.70974332  0.78986453  0.06658430     0.13200
C1800       C  0.68130759  0.77504617  0.05954166    -0.23000
C1801       C  0.64556636  0.72424936  0.11145824    -0.06000
H1802       H  0.70203327  0.75657484  0.11958139     0.14700
C1803       C  0.73104633  0.81210210  0.04983673    -0.16200
H1804       H  0.67546752  0.78053279  0.04289742     0.09000
H1805       H  0.55254554  0.66088914  0.04701543     0.06900
H1806       H  0.58504678  0.66686426  0.03489217     0.08100
H1807       H  0.56492957  0.67790609  0.01824256     0.07100
H1808       H  0.65122395  0.80106724  0.07245429     0.02000
H1809       H  0.63903334  0.78354572  0.10093782     0.02500
H1810       H  0.61879046  0.79500902  0.08497125     0.06000
H1811       H  0.65495131  0.72138523  0.12782927     0.05000
H1812       H  0.63429872  0.70378652  0.10190871    -0.00800
H1813       H  0.63015291  0.73022730  0.11679425     0.00700
H1814       H  0.72937254  0.80249193  0.03216752     0.04300
H1815       H  0.75316518  0.82143986  0.05580770     0.06300
H1816       H  0.72662828  0.82930317  0.04779891     0.07100
C1817       C  0.19900540  0.44187099  0.13448436    -0.22500
C1818       C  0.22847267  0.45440700  0.13439774     0.09500
C1819       C  0.24356249  0.46456495  0.11286361     0.09900
C1820       C  0.22936857  0.46486563  0.09242578    -0.17400
C1821       C  0.20053228  0.45526489  0.09315182    -0.27800
C1822       C  0.18479558  0.44228711  0.11396965     0.18200
C1823       C  0.24390110  0.46290159  0.15725085     0.12200
C1824       C  0.27505187  0.47723673  0.11197240    -0.12200
H1825       H  0.24127236  0.47487940  0.07635110     0.12500
C1826       C  0.15354449  0.43102784  0.11499261    -0.23000
H1827       H  0.18754886  0.43408482  0.15110261     0.08100
C1828       C  0.25136934  0.48910181  0.16746816     0.04500
C1829       C  0.26871665  0.49857090  0.18755364    -0.20200
C1830       C  0.27825357  0.48220542  0.19804271    -0.12500
C1831       C  0.27045335  0.45575084  0.18813650     0.13200
C1832       C  0.25346581  0.44643489  0.16761695    -0.23000
C1833       C  0.24121691  0.50724636  0.15700919    -0.06000
H1834       H  0.27451861  0.51869489  0.19538479     0.14700
C1835       C  0.28096821  0.43800048  0.19860092    -0.16200
H1836       H  0.24801853  0.42660279  0.15944066     0.09000
H1837       H  0.14958105  0.44835185  0.11168562     0.06900
H1838       H  0.14442765  0.42153767  0.13259756     0.08100
H1839       H  0.14246719  0.41448785  0.10124886     0.07100
H1840       H  0.28007869  0.46123583  0.11768501     0.02000
H1841       H  0.28579460  0.49576469  0.12396647     0.02500
H1842       H  0.28360224  0.48438821  0.09376452     0.06000
H1843       H  0.24913414  0.52711366  0.16714708     0.05000
H1844       H  0.21777720  0.49554618  0.15730498    -0.00800
H1845       H  0.24871380  0.51296342  0.13838949     0.00700
H1846       H  0.27306853  0.43178510  0.21706905     0.04300
H1847       H  0.30441018  0.45030661  0.19866090     0.06300
H1848       H  0.27372996  0.41842798  0.18820024     0.07100
C1849       C  0.29276586  0.54052824  0.00554451    -0.22500
C1850       C  0.30768891  0.56864697  0.01326354     0.09500
C1851       C  0.29262797  0.58066088  0.02224975     0.09900
C1852       C  0.26323363  0.56376654  0.02475490    -0.17400
C1853       C  0.24826002  0.53473462  0.01924578    -0.27800
C1854       C  0.26326913  0.52329531  0.00850823     0.18200
C1855       C  0.33906163  0.58440807  0.01434414     0.12200
C1856       C  0.30764321  0.61093194  0.03052262    -0.12200
H1857       H  0.25216175  0.57316502  0.03238066     0.12500
C1858       C  0.24886052  0.49293910  0.00071820    -0.23000
H1859       H  0.30449778  0.53166202  0.99823443     0.08100
C1860       C  0.35309828  0.57830405  0.03212208     0.04500
C1861       C  0.38220107  0.59682908  0.03557452    -0.20200
C1862       C  0.39735216  0.62161273  0.02211892    -0.12500
C1863       C  0.38377663  0.62675402  0.00327322     0.13200
C1864       C  0.35479265  0.60792221  0.99949344    -0.23000
C1865       C  0.33711560  0.55331377  0.04852375    -0.06000
H1866       H  0.39269967  0.59311034  0.05007933     0.14700
C1867       C  0.39916013  0.65216969  0.98718770    -0.16200
H1868       H  0.34412372  0.61235903  0.98564128     0.09000
H1869       H  0.24004453  0.47870264  0.01635535     0.06900
H1870       H  0.26377316  0.48827498  0.99175245     0.08100
H1871       H  0.23175860  0.48831033  0.98793500     0.07100
H1872       H  0.31886828  0.62538651  0.01540041     0.02000
H1873       H  0.32309425  0.61435902  0.04461346     0.02500
H1874       H  0.29271225  0.61657410  0.03793329     0.06000
H1875       H  0.35120855  0.55227131  0.06192234     0.05000
H1876       H  0.32715648  0.53345169  0.03813557    -0.00800
H1877       H  0.32050562  0.55480992  0.05815281     0.00700
H1878       H  0.39674248  0.64509275  0.96843813     0.04300
H1879       H  0.42211544  0.66514122  0.99095315     0.06300
H1880       H  0.39004301  0.66567869  0.98920753     0.07100
C1881       C  0.05532038  0.35941632  0.08464523    -0.22500
C1882       C  0.05780375  0.33841885  0.07334233     0.09500
C1883       C  0.07412097  0.34506752  0.05245783     0.09900
C1884       C  0.08832324  0.37282493  0.04372090    -0.17400
C1885       C  0.08733259  0.39451350  0.05566029    -0.27800
C1886       C  0.06998160  0.38744570  0.07626872     0.18200
C1887       C  0.04540345  0.31020409  0.08464953     0.12200
C1888       C  0.07757997  0.32309086  0.03999349    -0.12200
H1889       H  0.10122261  0.37777001  0.02787390     0.12500
C1890       C  0.06759058  0.40921148  0.09028622    -0.23000
H1891       H  0.04269601  0.35400104  0.10072521     0.08100
C1892       C  0.05991380  0.30552647  0.10288094     0.04500
C1893       C  0.04977835  0.27787305  0.11079630    -0.20200
C1894       C  0.02532108  0.25475569  0.10106419    -0.12500
C1895       C  0.01000505  0.25963925  0.08360303     0.13200
C1896       C  0.02031212  0.28736960  0.07559089    -0.23000
C1897       C  0.08665137  0.32963789  0.11337898    -0.06000
H1898       H  0.06136692  0.27418227  0.12432643     0.14700
C1899       C  0.98378682  0.23565104  0.07237988    -0.16200
H1900       H  0.00933442  0.29119539  0.06155679     0.09000
H1901       H  0.08867928  0.42564587  0.09704247     0.06900
H1902       H  0.05339733  0.39974974  0.10590512     0.08100
H1903       H  0.05870594  0.41903238  0.07892679     0.07100
H1904       H  0.05666582  0.30536301  0.03417691     0.02000
H1905       H  0.08730547  0.31491437  0.05227157     0.02500
H1906       H  0.09133768  0.33184941  0.02405342     0.06000
H1907       H  0.09546321  0.32228445  0.12733862     0.05000
H1908       H  0.08225446  0.34509645  0.12156824    -0.00800
H1909       H  0.10286040  0.34033768  0.09925598     0.00700
H1910       H  0.97522024  0.24321582  0.05837547     0.04300
H1911       H  0.96709516  0.22447045  0.08604506     0.06300
H1912       H  0.98874534  0.22066193  0.06404971     0.07100
C1913       C  0.20693934  0.56837207  0.30889391    -0.22500
C1914       C  0.19433528  0.54051795  0.30089366     0.09500
C1915       C  0.16520787  0.52490914  0.29572636     0.09900
C1916       C  0.15010972  0.53874928  0.29581598    -0.17400
C1917       C  0.16379362  0.56777398  0.30079402    -0.27800
C1918       C  0.19190978  0.58214278  0.30919115     0.18200
C1919       C  0.21334421  0.53084282  0.29340821     0.12200
C1920       C  0.15061921  0.49426076  0.28882075    -0.12200
H1921       H  0.12839041  0.52755822  0.28973907     0.12500
C1922       C  0.20697349  0.61231700  0.31761819    -0.23000
H1923       H  0.22922294  0.58008322  0.31333280     0.08100
C1924       C  0.22471346  0.53693020  0.27022954     0.04500
C1925       C  0.24584012  0.53153582  0.26431580    -0.20200
C1926       C  0.25622670  0.52042133  0.28101336    -0.12500
C1927       C  0.24430032  0.51362445  0.30418139     0.13200
C1928       C  0.22293058  0.51900499  0.31007213    -0.23000
C1929       C  0.21521817  0.55004695  0.25187777    -0.06000
H1930       H  0.25460265  0.53645862  0.24650203     0.14700
C1931       C  0.25473355  0.50201046  0.32307735    -0.16200
H1932       H  0.21426701  0.51480692  0.32790505     0.09000
H1933       H  0.22448049  0.62593804  0.30520543     0.06900
H1934       H  0.21586672  0.61365861  0.33556390     0.08100
H1935       H  0.19272076  0.62060449  0.31913575     0.07100
H1936       H  0.15261820  0.48201259  0.30346953     0.02000
H1937       H  0.16036893  0.49183828  0.27250748     0.02500
H1938       H  0.12778513  0.48521306  0.28532744     0.06000
H1939       H  0.22653643  0.55366453  0.23472613     0.05000
H1940       H  0.21937516  0.57075136  0.25829738    -0.00800
H1941       H  0.19228057  0.53592390  0.24846971     0.00700
H1942       H  0.27774004  0.51666055  0.32585789     0.04300
H1943       H  0.25055748  0.48096117  0.31771423     0.06300
H1944       H  0.24394008  0.49935711  0.34036007     0.07100
C1945       C  0.13188720  0.51800535  0.15751612    -0.22500
C1946       C  0.10346504  0.50987303  0.15947439     0.09500
C1947       C  0.08501472  0.49576847  0.14035756     0.09900
C1948       C  0.09571304  0.49107910  0.11938263    -0.17400
C1949       C  0.12439981  0.49972374  0.11711338    -0.27800
C1950       C  0.14254859  0.51263097  0.13693959     0.18200
C1951       C  0.09457364  0.51826404  0.18128219     0.12200
C1952       C  0.05402000  0.48532516  0.14216855    -0.12200
H1953       H  0.08152752  0.48074767  0.10458452     0.12500
C1954       C  0.17328814  0.52148650  0.13676586    -0.23000
H1955       H  0.14599386  0.52909413  0.17221466     0.08100
C1956       C  0.09628292  0.50826319  0.20395807     0.04500
C1957       C  0.09550395  0.52237554  0.22432314    -0.20200
C1958       C  0.09291535  0.54605555  0.22247245    -0.12500
C1959       C  0.08803971  0.55407442  0.20002212     0.13200
C1960       C  0.08903029  0.54012087  0.17964415    -0.23000
C1961       C  0.10010501  0.48348632  0.20665845    -0.06000
H1962       H  0.09939408  0.51642938  0.24162895     0.14700
C1963       C  0.08396541  0.57866680  0.19690622    -0.16200
H1964       H  0.08765419  0.54783514  0.16228456     0.09000
H1965       H  0.17515228  0.50276908  0.13388003     0.06900
H1966       H  0.18385539  0.53110743  0.15389334     0.08100
H1967       H  0.18479898  0.53744544  0.12262192     0.07100
H1968       H  0.05094268  0.50330475  0.14474109     0.02000
H1969       H  0.04466056  0.47056500  0.15744889     0.02500
H1970       H  0.04243643  0.47393460  0.12586569     0.06000
H1971       H  0.09998439  0.47788162  0.22563347     0.05000
H1972       H  0.12052576  0.48839723  0.19888134    -0.00800
H1973       H  0.08260755  0.46481892  0.19753262     0.00700
H1974       H  0.10137081  0.59524937  0.18588060     0.04300
H1975       H  0.08352836  0.58825863  0.21403694     0.06300
H1976       H  0.06355055  0.57137092  0.18782141     0.07100
C1977       C  0.32065844  0.74269622  0.30464143    -0.22500
C1978       C  0.30378801  0.75440150  0.30204387     0.09500
C1979       C  0.31661118  0.78382741  0.29949965     0.09900
C1980       C  0.34599631  0.80058007  0.29688709    -0.17400
C1981       C  0.36273694  0.78846536  0.29660186    -0.27800
C1982       C  0.35012239  0.75944707  0.30232129     0.18200
C1983       C  0.27352827  0.73525827  0.29665436     0.12200
C1984       C  0.29907893  0.79720302  0.29797461    -0.12200
H1985       H  0.35557425  0.82290330  0.29301664     0.12500
C1986       C  0.36686955  0.74539967  0.30575632    -0.23000
H1987       H  0.31063828  0.72004331  0.30709222     0.08100
C1988       C  0.26502209  0.72746138  0.27289255     0.04500
C1989       C  0.23666673  0.70804093  0.26797799    -0.20200
C1990       C  0.21647058  0.69614006  0.28617493    -0.12500
C1991       C  0.22470093  0.70475351  0.30997098     0.13200
C1992       C  0.25336340  0.72424271  0.31493968    -0.23000
C1993       C  0.28601549  0.73925079  0.25268735    -0.06000
H1994       H  0.23024297  0.70174035  0.24970940     0.14700
C1995       C  0.20369994  0.69270298  0.33011843    -0.16200
H1996       H  0.26018043  0.73059913  0.33315081     0.09000
H1997       H  0.36170781  0.72971271  0.29144271     0.06900
H1998       H  0.36126402  0.73429172  0.32316320     0.08100
H1999       H  0.38998344  0.76058399  0.30601640     0.07100
H2000       H  0.28636848  0.79251190  0.31445189     0.02000
H2001       H  0.28464792  0.78872411  0.28249337     0.02500
H2002       H  0.31245968  0.82050242  0.29593815     0.06000
H2003       H  0.27571810  0.73082700  0.23523560     0.05000
H2004       H  0.30225061  0.73357705  0.25518159    -0.00800
H2005       H  0.29649237  0.76258273  0.25205774     0.00700
H2006       H  0.19326816  0.66935297  0.33052381     0.04300
H2007       H  0.18748112  0.69843504  0.32781557     0.06300
H2008       H  0.21401991  0.70101557  0.34758778     0.07100
C2009       C  0.51837362  0.83053595  0.16626907    -0.22500
C2010       C  0.49813863  0.80649873  0.15389354     0.09500
C2011       C  0.47001965  0.79092018  0.16218945     0.09900
C2012       C  0.46273431  0.79957494  0.18284053    -0.17400
C2013       C  0.48299419  0.82301454  0.19580869    -0.27800
C2014       C  0.51114687  0.83893626  0.18733461     0.18200
C2015       C  0.50647833  0.79662747  0.13288821     0.12200
C2016       C  0.44780239  0.76459055  0.14964485    -0.12200
H2017       H  0.44128144  0.78716882  0.18948768     0.12500
C2018       C  0.53342277  0.86488207  0.20016005    -0.23000
H2019       H  0.53985047  0.84234144  0.15967710     0.08100
C2020       C  0.50101720  0.80215917  0.10968830     0.04500
C2021       C  0.50203883  0.78643984  0.09070235    -0.20200
C2022       C  0.50782032  0.76504361  0.09463971    -0.12500
C2023       C  0.51591023  0.76138909  0.11750697     0.13200
C2024       C  0.51521775  0.77736973  0.13642060    -0.23000
C2025       C  0.49257981  0.82347884  0.10520121    -0.06000
H2026       H  0.49591112  0.78917286  0.07310693     0.14700
C2027       C  0.52478841  0.74049131  0.12254012    -0.16200
H2028       H  0.51971804  0.77344902  0.15428343     0.09000
H2029       H  0.55376063  0.87561011  0.19028998     0.06900
H2030       H  0.53741968  0.85907672  0.21795050     0.08100
H2031       H  0.52632564  0.88008193  0.20215853     0.07100
H2032       H  0.45437426  0.74887632  0.14899997     0.02000
H2033       H  0.44484125  0.76978016  0.13125712     0.02500
H2034       H  0.42707084  0.75465369  0.15886536     0.06000
H2035       H  0.48881983  0.82500391  0.08603005     0.05000
H2036       H  0.50965704  0.84459390  0.11130478    -0.00800
H2037       H  0.47286396  0.81748862  0.11498731     0.00700
H2038       H  0.54652208  0.75183490  0.12991020     0.04300
H2039       H  0.52494524  0.72915549  0.10640464     0.06300
H2040       H  0.51031756  0.72474086  0.13582853     0.07100
C2041       C  0.44109204  0.71984438  0.30628325    -0.22500
C2042       C  0.43106891  0.69965895  0.28807737     0.09500
C2043       C  0.43166647  0.70818767  0.26434439     0.09900
C2044       C  0.44152397  0.73650208  0.25939487    -0.17400
C2045       C  0.45024378  0.75660974  0.27755547    -0.27800
C2046       C  0.45077792  0.74839456  0.30130870     0.18200
C2047       C  0.41750282  0.66918840  0.29365055     0.12200
C2048       C  0.42055650  0.68711579  0.24427172    -0.12200
H2049       H  0.44127172  0.74280309  0.24116108     0.12500
C2050       C  0.46005254  0.76919493  0.32146536    -0.23000
H2051       H  0.44042712  0.71303572  0.32451142     0.08100
C2052       C  0.43181413  0.65479439  0.28987900     0.04500
C2053       C  0.41613548  0.62527689  0.28752714    -0.20200
C2054       C  0.38641257  0.60994612  0.28833542    -0.12500
C2055       C  0.37239554  0.62425292  0.29458877     0.13200
C2056       C  0.38824714  0.65370336  0.29739396    -0.23000
C2057       C  0.46345951  0.67078960  0.28707540    -0.06000
H2058       H  0.42709842  0.61445634  0.28323702     0.14700
C2059       C  0.34076192  0.60897115  0.29764211    -0.16200
H2060       H  0.37747836  0.66500199  0.30049253     0.09000
H2061       H  0.45831138  0.75898328  0.33890012     0.06900
H2062       H  0.44665159  0.77855454  0.32212951     0.08100
H2063       H  0.48246379  0.78623350  0.31892694     0.07100
H2064       H  0.39790629  0.67107966  0.24733150     0.02000
H2065       H  0.43263499  0.67639314  0.24311588     0.02500
H2066       H  0.42238609  0.69737772  0.22685380     0.06000
H2067       H  0.47134427  0.65635819  0.28404634     0.05000
H2068       H  0.47351159  0.68312729  0.30343256    -0.00800
H2069       H  0.47004791  0.68548976  0.27172833     0.00700
H2070       H  0.33398199  0.62317828  0.30463060     0.04300
H2071       H  0.33364180  0.59124686  0.31041086     0.06300
H2072       H  0.33004139  0.60083630  0.28032449     0.07100
C2073       C  0.22311354  0.88175718  0.07726611    -0.22500
C2074       C  0.23498761  0.90807112  0.06604819     0.09500
C2075       C  0.25784672  0.91694916  0.05024803     0.09900
C2076       C  0.26784494  0.89882035  0.04550933    -0.17400
C2077       C  0.25530750  0.87193658  0.05611187    -0.27800
C2078       C  0.23292606  0.86357149  0.07260416     0.18200
C2079       C  0.22240043  0.92537629  0.07111954     0.12200
C2080       C  0.27134192  0.94532852  0.03823028    -0.12200
H2081       H  0.28502375  0.90536295  0.03297317     0.12500
C2082       C  0.21970402  0.83590860  0.08594156    -0.23000
H2083       H  0.20576613  0.87530888  0.08960620     0.08100
C2084       C  0.19760749  0.92000058  0.05950467     0.04500
C2085       C  0.18353056  0.93324854  0.06755200    -0.20200
C2086       C  0.19314893  0.95126613  0.08736003    -0.12500
C2087       C  0.21861907  0.95736091  0.09856876     0.13200
C2088       C  0.23310381  0.94461794  0.08999099    -0.23000
C2089       C  0.18545089  0.89952169  0.03911763    -0.06000
H2090       H  0.16419876  0.92867575  0.05881952     0.14700
C2091       C  0.23025289  0.97528472  0.12053478    -0.16200
H2092       H  0.25198360  0.94838844  0.09901206     0.09000
H2093       H  0.20813088  0.81791666  0.07355846     0.06900
H2094       H  0.20426177  0.83409955  0.09945998     0.08100
H2095       H  0.23633512  0.83422999  0.09531006     0.07100
H2096       H  0.28001909  0.96225821  0.05182964     0.02000
H2097       H  0.25537582  0.94669063  0.02745279     0.02500
H2098       H  0.28887464  0.94898866  0.02628344     0.06000
H2099       H  0.16601400  0.89787038  0.03197133     0.05000
H2100       H  0.17991760  0.87818518  0.04512636    -0.00800
H2101       H  0.20118174  0.90662776  0.02451570     0.00700
H2102       H  0.23237056  0.96277248  0.13488362     0.04300
H2103       H  0.21673883  0.98272162  0.12753447     0.06300
H2104       H  0.25144319  0.99397106  0.11658253     0.07100
C2105       C  0.18506217  0.60781085  0.00547688    -0.22500
C2106       C  0.18451014  0.62551409  0.02286125     0.09500
C2107       C  0.17110621  0.61409980  0.04487383     0.09900
C2108       C  0.16042401  0.58552036  0.04967316    -0.17400
C2109       C  0.16246880  0.56815501  0.03282775    -0.27800
C2110       C  0.17417473  0.57912559  0.01017039     0.18200
C2111       C  0.20159353  0.65640695  0.01930885     0.12200
C2112       C  0.16924691  0.63236173  0.06366273    -0.12200
H2113       H  0.15145246  0.57690585  0.06701226     0.12500
C2114       C  0.17724527  0.56183022  0.99112750    -0.23000
H2115       H  0.19546401  0.61678094  0.98863782     0.08100
C2116       C  0.23081374  0.67142259  0.02413928     0.04500
C2117       C  0.24568006  0.70092650  0.02456270    -0.20200
C2118       C  0.23186296  0.71577983  0.02123423    -0.12500
C2119       C  0.20284084  0.70077601  0.01526553     0.13200
C2120       C  0.18811318  0.67114704  0.01405882    -0.23000
C2121       C  0.24592897  0.65632551  0.03049083    -0.06000
H2122       H  0.26790777  0.71245256  0.02919408     0.14700
C2123       C  0.18684702  0.71558279  0.01204816    -0.16200
H2124       H  0.16558009  0.65930042  0.01052776     0.09000
H2125       H  0.19991007  0.57154217  0.98649815     0.06900
H2126       H  0.16555222  0.56148185  0.97501718     0.08100
H2127       H  0.16913624  0.53969349  0.99645215     0.07100
H2128       H  0.15712994  0.64160428  0.05672368     0.02000
H2129       H  0.19075887  0.64966152  0.06871637     0.02500
H2130       H  0.15839795  0.62008861  0.07994126     0.06000
H2131       H  0.26864146  0.67135814  0.03431356     0.05000
H2132       H  0.24451878  0.64267281  0.01553911    -0.00800
H2133       H  0.23614986  0.64308526  0.04657142     0.00700
H2134       H  0.16418084  0.70045943  0.00810872     0.04300
H2135       H  0.19601057  0.73073361  0.99701718     0.06300
H2136       H  0.18804496  0.72706498  0.02855294     0.07100
C2137       C  0.21212986  0.75098564  0.14528951    -0.22500
C2138       C  0.18969613  0.72344054  0.14088950     0.09500
C2139       C  0.18117195  0.71448851  0.11732456     0.09900
C2140       C  0.19642772  0.73289567  0.09854304    -0.17400
C2141       C  0.22026421  0.75973752  0.10288729    -0.27800
C2142       C  0.22751309  0.76935655  0.12656539     0.18200
C2143       C  0.17679059  0.70388185  0.16122644     0.12200
C2144       C  0.15665312  0.68523986  0.11203278    -0.12200
H2145       H  0.19093901  0.72551658  0.08037391     0.12500
C2146       C  0.25138564  0.79869712  0.13267908    -0.23000
H2147       H  0.21824012  0.75789459  0.16349509     0.08100
C2148       C  0.18689407  0.68644907  0.16842807     0.04500
C2149       C  0.17542258  0.66957038  0.18871037    -0.20200
C2150       C  0.15457289  0.67019617  0.20233428    -0.12500
C2151       C  0.14363741  0.68685650  0.19453511     0.13200
C2152       C  0.15513474  0.70370891  0.17412590    -0.23000
C2153       C  0.21060534  0.68651063  0.15532807    -0.06000
H2154       H  0.18387811  0.65691339  0.19465093     0.14700
C2155       C  0.11956843  0.68699016  0.20676813    -0.16200
H2156       H  0.14727822  0.71693489  0.16829172     0.09000
H2157       H  0.26791481  0.79743326  0.14266336     0.06900
H2158       H  0.26122353  0.81225965  0.11682762     0.08100
H2159       H  0.24321106  0.80922995  0.14397220     0.07100
H2160       H  0.13721449  0.68220620  0.12051516     0.02000
H2161       H  0.16085666  0.66913050  0.11904078     0.02500
H2162       H  0.15280325  0.68169552  0.09263098     0.06000
H2163       H  0.21611794  0.67185372  0.16358303     0.05000
H2164       H  0.22974226  0.70806625  0.15554499    -0.00800
H2165       H  0.20444224  0.67986216  0.13664488     0.00700
H2166       H  0.12706228  0.70837242  0.21392943     0.04300
H2167       H  0.11004045  0.67141188  0.22138356     0.06300
H2168       H  0.10247887  0.68153089  0.19372660     0.07100
C2169       C  0.37828497  0.85019605  0.13699954    -0.22500
C2170       C  0.37453865  0.86859434  0.15120366     0.09500
C2171       C  0.35885889  0.88002451  0.14238932     0.09900
C2172       C  0.34486909  0.87050597  0.12041050    -0.17400
C2173       C  0.34673425  0.85019998  0.10697999    -0.27800
C2174       C  0.36488539  0.84103044  0.11495374     0.18200
C2175       C  0.38444925  0.87220990  0.17615137     0.12200
C2176       C  0.35718782  0.90233825  0.15607445    -0.12200
H2177       H  0.33178603  0.87831520  0.11406911     0.12500
C2178       C  0.37066207  0.82182598  0.10037345    -0.23000
H2179       H  0.39090261  0.84201377  0.14371877     0.08100
C2180       C  0.36605046  0.85386978  0.19401276     0.04500
C2181       C  0.37728822  0.85181570  0.21567432    -0.20200
C2182       C  0.40650745  0.86705691  0.21966027    -0.12500
C2183       C  0.42477598  0.88691491  0.20255900     0.13200
C2184       C  0.41347732  0.88934388  0.18093242    -0.23000
C2185       C  0.33485588  0.83446762  0.18947167    -0.06000
H2186       H  0.36345399  0.83647539  0.22879814     0.14700
C2187       C  0.45631243  0.90364552  0.20624780    -0.16200
H2188       H  0.42752172  0.90301985  0.16703522     0.09000
H2189       H  0.35149350  0.80038352  0.09929483     0.06900
H2190       H  0.37764914  0.83078015  0.08228211     0.08100
H2191       H  0.38761981  0.81948208  0.10830011     0.07100
H2192       H  0.37877774  0.92109695  0.15831749     0.02000
H2193       H  0.34778436  0.89433440  0.17386897     0.02500
H2194       H  0.34415609  0.90912625  0.14667073     0.06000
H2195       H  0.32372001  0.82102978  0.20516461     0.05000
H2196       H  0.33153511  0.82031730  0.17430401    -0.00800
H2197       H  0.32505815  0.84694279  0.18530362     0.00700
H2198       H  0.46420491  0.88909972  0.20853193     0.04300
H2199       H  0.46150525  0.91696846  0.22235305     0.06300
H2200       H  0.46759729  0.91774541  0.19092122     0.07100
C2201       C  0.43780728  0.78397268  0.99872821    -0.22500
C2202       C  0.40971926  0.77068813  0.00677979     0.09500
C2203       C  0.39727166  0.74364440  0.01734718     0.09900
C2204       C  0.41347573  0.73133450  0.02057388    -0.17400
C2205       C  0.44228675  0.74557051  0.01458841    -0.27800
C2206       C  0.45459573  0.77225613  0.00310528     0.18200
C2207       C  0.39475591  0.78651755  0.00725452     0.12200
C2208       C  0.36736695  0.72825352  0.02669501    -0.12200
H2209       H  0.40382261  0.71080261  0.02910779     0.12500
C2210       C  0.48548935  0.79016241  0.99679749    -0.23000
H2211       H  0.44729217  0.80457387  0.99037645     0.08100
C2212       C  0.40332194  0.80949490  0.02296968     0.04500
C2213       C  0.38488083  0.81906202  0.02772818    -0.20200
C2214       C  0.35785001  0.80569956  0.01774241    -0.12500
C2215       C  0.35057043  0.78498563  0.00000315     0.13200
C2216       C  0.36920301  0.77576845  0.99487728    -0.23000
C2217       C  0.43093123  0.82260702  0.03618269    -0.06000
H2218       H  0.39062507  0.83535916  0.04091411     0.14700
C2219       C  0.32302787  0.77181494  0.98663600    -0.16200
H2220       H  0.36296152  0.75885068  0.98217911     0.09000
H2221       H  0.49482528  0.81097739  0.00571968     0.06900
H2222       H  0.48778047  0.79362243  0.97728618     0.08100
H2223       H  0.49803549  0.78095989  0.00227301     0.07100
H2224       H  0.35228333  0.72290165  0.01186546     0.02000
H2225       H  0.36478329  0.74165081  0.03978783     0.02500
H2226       H  0.36174995  0.70816539  0.03571392     0.06000
H2227       H  0.43358102  0.83936094  0.04855760     0.05000
H2228       H  0.44880665  0.83246528  0.02342599    -0.00800
H2229       H  0.43188909  0.80625746  0.04676753     0.00700
H2230       H  0.32737864  0.77460509  0.96724075     0.04300
H2231       H  0.31057202  0.78159532  0.99102666     0.06300
H2232       H  0.31006529  0.74889603  0.99074698     0.07100
C2233       C  0.51179330  0.86015143  0.37644028    -0.22500
C2234       C  0.48839983  0.84276762  0.39082785     0.09500
C2235       C  0.46112002  0.82783336  0.38096763     0.09900
C2236       C  0.45761351  0.83146691  0.35690575    -0.17400
C2237       C  0.48081913  0.84930939  0.34236194    -0.27800
C2238       C  0.50842703  0.86329382  0.35212522     0.18200
C2239       C  0.49250527  0.84164801  0.41654505     0.12200
C2240       C  0.43569968  0.80821516  0.39591274    -0.12200
H2241       H  0.43655709  0.82009285  0.34935454     0.12500
C2242       C  0.53436416  0.88199768  0.33737821    -0.23000
H2243       H  0.53258097  0.87133921  0.38430776     0.08100
C2244       C  0.49672282  0.82097130  0.42658415     0.04500
C2245       C  0.49799744  0.81937896  0.45133854    -0.20200
C2246       C  0.49517017  0.83805640  0.46630941    -0.12500
C2247       C  0.49101660  0.85893664  0.45594943     0.13200
C2248       C  0.49000325  0.86053675  0.43115204    -0.23000
C2249       C  0.49969352  0.80053911  0.41116601    -0.06000
H2250       H  0.50109191  0.80329442  0.45897817     0.14700
C2251       C  0.48650193  0.87898518  0.47053991    -0.16200
H2252       H  0.48647598  0.87606442  0.42305957     0.09000
H2253       H  0.55385159  0.89222328  0.34831489     0.06900
H2254       H  0.53245549  0.89891025  0.32881169     0.08100
H2255       H  0.53695889  0.86927453  0.32359300     0.07100
H2256       H  0.43342017  0.82012973  0.41063369     0.02000
H2257       H  0.43820842  0.79120824  0.40347799     0.02500
H2258       H  0.41592182  0.79812303  0.38533999     0.06000
H2259       H  0.50271443  0.78555098  0.42192204     0.05000
H2260       H  0.51825846  0.81237274  0.39926419    -0.00800
H2261       H  0.48046591  0.78806181  0.40018824     0.00700
H2262       H  0.48246884  0.89287874  0.45922213     0.04300
H2263       H  0.50560372  0.89289901  0.48125294     0.06300
H2264       H  0.46786602  0.86685476  0.48232980     0.07100
C2265       C  0.66262172  0.89818966  0.58688371    -0.22500
C2266       C  0.65758409  0.91835906  0.57736141     0.09500
C2267       C  0.67871199  0.94719260  0.57848515     0.09900
C2268       C  0.70489336  0.95516900  0.58868001    -0.17400
C2269       C  0.71026362  0.93498355  0.59820092    -0.27800
C2270       C  0.68856579  0.90593184  0.59728723     0.18200
C2271       C  0.62949137  0.90830470  0.56695811     0.12200
C2272       C  0.67363392  0.96942759  0.56884266    -0.12200
H2273       H  0.72125290  0.97737589  0.58922901     0.12500
C2274       C  0.69234607  0.88259534  0.60640611    -0.23000
H2275       H  0.64598951  0.87606874  0.58599868     0.08100
C2276       C  0.62196644  0.89505291  0.54457381     0.04500
C2277       C  0.59387044  0.88215797  0.53697818    -0.20200
C2278       C  0.57291573  0.88141206  0.55155611    -0.12500
C2279       C  0.58073358  0.89519826  0.57389359     0.13200
C2280       C  0.60905652  0.90882474  0.58109251    -0.23000
C2281       C  0.64338523  0.89375446  0.52906889    -0.06000
H2282       H  0.58801624  0.87157827  0.51992058     0.14700
C2283       C  0.55924832  0.89397016  0.59103595    -0.16200
H2284       H  0.61508651  0.91865821  0.59844857     0.09000
H2285       H  0.70959761  0.88267275  0.59653040     0.06900
H2286       H  0.67305723  0.86141993  0.60387180     0.08100
H2287       H  0.69690340  0.88515158  0.62572745     0.07100
H2288       H  0.65589446  0.96868806  0.57860235     0.02000
H2289       H  0.66827457  0.96558876  0.54968223     0.02500
H2290       H  0.69255647  0.99097782  0.57078707     0.06000
H2291       H  0.63407150  0.88305840  0.51191829     0.05000
H2292       H  0.65158239  0.88180677  0.53825566    -0.00800
H2293       H  0.66121002  0.91546369  0.52517019     0.00700
H2294       H  0.54310287  0.87161703  0.59516690     0.04300
H2295       H  0.54892386  0.90464879  0.58323769     0.06300
H2296       H  0.56907386  0.90468194  0.60806324     0.07100
C2297       C  0.50896115  0.67413712  0.87476184    -0.22500
C2298       C  0.48583688  0.66108296  0.89027373     0.09500
C2299       C  0.45878182  0.64129438  0.88142099     0.09900
C2300       C  0.45547513  0.63494179  0.85710883    -0.17400
C2301       C  0.47843330  0.64855988  0.84138190    -0.27800
C2302       C  0.50559850  0.66837749  0.85032251     0.18200
C2303       C  0.49032554  0.66904716  0.91565178     0.12200
C2304       C  0.43337708  0.62723560  0.89756049    -0.12200
H2305       H  0.43462426  0.62009573  0.85017708     0.12500
C2306       C  0.53114295  0.68322870  0.83434159    -0.23000
H2307       H  0.52965313  0.68930453  0.88181485     0.08100
C2308       C  0.50010883  0.65661885  0.93175682     0.04500
C2309       C  0.50298391  0.66410508  0.95583421    -0.20200
C2310       C  0.49694902  0.68424013  0.96399652    -0.12500
C2311       C  0.48782916  0.69721563  0.94766768     0.13200
C2312       C  0.48455281  0.68934875  0.92366264    -0.23000
C2313       C  0.50720011  0.63528533  0.92353795    -0.06000
H2314       H  0.50986122  0.65412692  0.96839387     0.14700
C2315       C  0.48031761  0.71837085  0.95555423    -0.16200
H2316       H  0.47710993  0.69879468  0.91106807     0.09000
H2317       H  0.55081958  0.69659256  0.84462636     0.06900
H2318       H  0.52890824  0.69725466  0.82168830     0.08100
H2319       H  0.53358183  0.66743101  0.82435400     0.07100
H2320       H  0.43011790  0.64343336  0.90581744     0.02000
H2321       H  0.43667263  0.61534593  0.91173368     0.02500
H2322       H  0.41384460  0.61222639  0.88773624     0.06000
H2323       H  0.51446719  0.62754607  0.93844549     0.05000
H2324       H  0.52435474  0.64504219  0.91007588    -0.00800
H2325       H  0.48825799  0.61688671  0.91552615     0.00700
H2326       H  0.49916569  0.73723303  0.96314604     0.04300
H2327       H  0.46326354  0.70865629  0.96909012     0.06300
H2328       H  0.47269702  0.72560595  0.94053332     0.07100
C2329       C  0.48820855  0.72456037  0.61607193    -0.22500
C2330       C  0.50589291  0.74083416  0.63466457     0.09500
C2331       C  0.52473327  0.77011926  0.63150236     0.09900
C2332       C  0.52282997  0.78311075  0.61075843    -0.17400
C2333       C  0.50293146  0.76705286  0.59322691    -0.27800
C2334       C  0.48683231  0.73729850  0.59516148     0.18200
C2335       C  0.50043783  0.72740739  0.65825128     0.12200
C2336       C  0.54608233  0.78753153  0.65029436    -0.12200
H2337       H  0.53545515  0.80591289  0.60897300     0.12500
C2338       C  0.46737605  0.71853259  0.57577733    -0.23000
H2339       H  0.47424448  0.70194071  0.61841210     0.08100
C2340       C  0.48175583  0.72916181  0.67410197     0.04500
C2341       C  0.47398511  0.71338866  0.69510008    -0.20200
C2342       C  0.48422111  0.69569728  0.70063949    -0.12500
C2343       C  0.50323317  0.69421781  0.68485404     0.13200
C2344       C  0.51102136  0.71006854  0.66369590    -0.23000
C2345       C  0.46907017  0.74679093  0.66845877    -0.06000
H2346       H  0.45940530  0.71454068  0.70712219     0.14700
C2347       C  0.51444573  0.67524147  0.68968572    -0.16200
H2348       H  0.52487206  0.70848156  0.65109075     0.09000
H2349       H  0.44513069  0.70767255  0.58199192     0.06900
H2350       H  0.47266524  0.70243717  0.57110060     0.08100
H2351       H  0.46939786  0.73036371  0.55933259     0.07100
H2352       H  0.56031607  0.77938365  0.65318598     0.02000
H2353       H  0.53538119  0.78632596  0.66728089     0.02500
H2354       H  0.55920166  0.81008306  0.64497422     0.06000
H2355       H  0.45448124  0.74530579  0.68267689     0.05000
H2356       H  0.45693672  0.73944962  0.65163092    -0.00800
H2357       H  0.48595050  0.76933100  0.66654803     0.00700
H2358       H  0.49664722  0.65312165  0.69207018     0.04300
H2359       H  0.52758532  0.68243628  0.70594013     0.06300
H2360       H  0.52788126  0.67566545  0.67487624     0.07100
C2361       C  0.12788148  0.63503128  0.38944656    -0.22500
C2362       C  0.12410407  0.65738449  0.39494734     0.09500
C2363       C  0.11637845  0.66966029  0.37696804     0.09900
C2364       C  0.11298224  0.65951412  0.35367104    -0.17400
C2365       C  0.11688035  0.63712060  0.34785492    -0.27800
C2366       C  0.12424581  0.62455805  0.36620663     0.18200
C2367       C  0.12793443  0.66720538  0.41983650     0.12200
C2368       C  0.11137315  0.69321044  0.38245144    -0.12200
H2369       H  0.10723994  0.66925260  0.33992168     0.12500
C2370       C  0.12888632  0.60055125  0.36167815    -0.23000
H2371       H  0.13374317  0.62574828  0.40353251     0.08100
C2372       C  0.10724215  0.65148833  0.43721215     0.04500
C2373       C  0.11229200  0.66068714  0.46080078    -0.20200
C2374       C  0.13762912  0.68511923  0.46754488    -0.12500
C2375       C  0.15830732  0.70110887  0.45003916     0.13200
C2376       C  0.15305972  0.69196257  0.42631272    -0.23000
C2377       C  0.07989871  0.62490727  0.43089614    -0.06000
H2378       H  0.09648177  0.64837841  0.47421881     0.14700
C2379       C  0.18643261  0.72676993  0.45636744    -0.16200
H2380       H  0.16893543  0.70375154  0.41277762     0.09000
H2381       H  0.10908309  0.58185743  0.35510117     0.06900
H2382       H  0.13504839  0.59399790  0.37809636     0.08100
H2383       H  0.14610249  0.60708475  0.34848014     0.07100
H2384       H  0.13095829  0.71167081  0.38959050     0.02000
H2385       H  0.09422256  0.68591486  0.39583475     0.02500
H2386       H  0.10508331  0.70020560  0.36637714     0.06000
H2387       H  0.06586826  0.61547534  0.44661284     0.05000
H2388       H  0.08421778  0.60896810  0.42370539    -0.00800
H2389       H  0.06850808  0.62973041  0.41734784     0.00700
H2390       H  0.20041238  0.73585179  0.44057689     0.04300
H2391       H  0.19737797  0.72093797  0.46956138     0.06300
H2392       H  0.18331659  0.74338874  0.46386061     0.07100
C2393       C  0.30148228  0.80457714  0.51687248    -0.22500
C2394       C  0.31507166  0.78955194  0.51348631     0.09500
C2395       C  0.29881853  0.75983632  0.51132593     0.09900
C2396       C  0.26939631  0.74578729  0.51353518    -0.17400
C2397       C  0.25600443  0.76060535  0.51870416    -0.27800
C2398       C  0.27208082  0.79041369  0.51987910     0.18200
C2399       C  0.34562743  0.80392798  0.51853017     0.12200
C2400       C  0.31257377  0.74268465  0.50890231    -0.12200
H2401       H  0.25693633  0.72289446  0.51313608     0.12500
C2402       C  0.25934331  0.80773393  0.52623338    -0.23000
H2403       H  0.31408779  0.82726926  0.51917100     0.08100
C2404       C  0.36624010  0.81164067  0.50067176     0.04500
C2405       C  0.39387500  0.81958453  0.50727001    -0.20200
C2406       C  0.40094345  0.81986337  0.53129975    -0.12500
C2407       C  0.38085683  0.81503775  0.54913348     0.13200
C2408       C  0.35346023  0.80706367  0.54245057    -0.23000
C2409       C  0.35896685  0.81123696  0.47486091    -0.06000
H2410       H  0.40948869  0.82407563  0.49364535     0.14700
C2411       C  0.38793715  0.81807632  0.57529328    -0.16200
H2412       H  0.33756779  0.80177135  0.55600797     0.09000
H2413       H  0.26392599  0.82330731  0.51189154     0.06900
H2414       H  0.26879399  0.81926134  0.54305497     0.08100
H2415       H  0.23614286  0.79483830  0.52865758     0.07100
H2416       H  0.32647309  0.74646943  0.52439138     0.02000
H2417       H  0.32534673  0.74863466  0.49240177     0.02500
H2418       H  0.29668638  0.71968162  0.50810753     0.06000
H2419       H  0.37764446  0.81819741  0.46322142     0.05000
H2420       H  0.35113424  0.82573768  0.47199506    -0.00800
H2421       H  0.34230319  0.78965044  0.46944445     0.00700
H2422       H  0.37052600  0.81637813  0.58631891     0.04300
H2423       H  0.40709039  0.83907825  0.57869977     0.06300
H2424       H  0.39148371  0.80118836  0.58133919     0.07100
C2425       C  0.05136530  0.70754060  0.57436846    -0.22500
C2426       C  0.05518497  0.73290979  0.56543738     0.09500
C2427       C  0.07606510  0.74819329  0.54804814     0.09900
C2428       C  0.09335966  0.73831226  0.54057194    -0.17400
C2429       C  0.09085628  0.71384398  0.55040597    -0.27800
C2430       C  0.06900596  0.69775418  0.56703116     0.18200
C2431       C  0.04109114  0.74606098  0.57722505     0.12200
C2432       C  0.08135143  0.77594662  0.53845648    -0.12200
H2433       H  0.10991226  0.75057153  0.52768764     0.12500
C2434       C  0.06531458  0.67138371  0.57822051    -0.23000
H2435       H  0.03556737  0.69622720  0.58794031     0.08100
C2436       C  0.01791004  0.74597293  0.56704304     0.04500
C2437       C  0.00985032  0.76428407  0.57607273    -0.20200
C2438       C  0.02450857  0.78274179  0.59504692    -0.12500
C2439       C  0.04659452  0.78115021  0.60623831     0.13200
C2440       C  0.05434458  0.76269905  0.59718463    -0.23000
C2441       C  0.00197974  0.72680984  0.54655094    -0.06000
H2442       H  0.99259661  0.76483603  0.56764194     0.14700
C2443       C  0.06273414  0.79900853  0.62737344    -0.16200
H2444       H  0.07208703  0.76239752  0.60490682     0.09000
H2445       H  0.04781094  0.66204888  0.59137758     0.06900
H2446       H  0.08500235  0.67638997  0.58755538     0.08100
H2447       H  0.06030321  0.65529116  0.56432153     0.07100
H2448       H  0.08720308  0.79128324  0.55318210     0.02000
H2449       H  0.06211108  0.77284749  0.52961698     0.02500
H2450       H  0.09879015  0.78532325  0.52523032     0.06000
H2451       H  0.98434649  0.72934399  0.54068753     0.05000
H2452       H  0.99298165  0.70449900  0.55203685    -0.00800
H2453       H  0.01627232  0.73147371  0.53117841     0.00700
H2454       H  0.04785990  0.79583089  0.64194476     0.04300
H2455       H  0.07532226  0.82162110  0.62218982     0.06300
H2456       H  0.07782591  0.79338382  0.63443785     0.07100
C2457       C  0.30521890  0.86447245  0.87982003    -0.22500
C2458       C  0.31253227  0.84906076  0.89463640     0.09500
C2459       C  0.32765628  0.83730184  0.88522416     0.09900
C2460       C  0.33402119  0.84013572  0.86085690    -0.17400
C2461       C  0.32563436  0.85450539  0.84566398    -0.27800
C2462       C  0.31168175  0.86753262  0.85547429     0.18200
C2463       C  0.30393169  0.84527947  0.91995595     0.12200
C2464       C  0.33721650  0.82190161  0.90092643    -0.12200
H2465       H  0.34483229  0.83031540  0.85354287     0.12500
C2466       C  0.30383448  0.88507687  0.84067992    -0.23000
H2467       H  0.29400699  0.87377039  0.88732164     0.08100
C2468       C  0.31787691  0.86747315  0.93642623     0.04500
C2469       C  0.30999569  0.86238181  0.96042866    -0.20200
C2470       C  0.28879165  0.83550014  0.96844328    -0.12500
C2471       C  0.27462613  0.81332473  0.95184300     0.13200
C2472       C  0.28208766  0.81866869  0.92771248    -0.23000
C2473       C  0.34185837  0.89616718  0.92887452    -0.06000
H2474       H  0.32109607  0.87927730  0.97317362     0.14700
C2475       C  0.25311250  0.78363350  0.95956533    -0.16200
H2476       H  0.27156447  0.80174813  0.91489136     0.09000
H2477       H  0.29572859  0.89578611  0.85182705     0.06900
H2478       H  0.28689176  0.87150728  0.82792588     0.08100
H2479       H  0.32270084  0.90166230  0.83094585     0.07100
H2480       H  0.31866702  0.80302684  0.90892789     0.02000
H2481       H  0.35089666  0.83615195  0.91530530     0.02500
H2482       H  0.34947335  0.81470386  0.89083153     0.06000
H2483       H  0.35107277  0.91079896  0.94418201     0.05000
H2484       H  0.33421934  0.90569091  0.91587096    -0.00800
H2485       H  0.35884779  0.89413699  0.92058881     0.00700
H2486       H  0.24512193  0.76879852  0.94432279     0.04300
H2487       H  0.23476475  0.78305691  0.96798998     0.06300
H2488       H  0.26286900  0.77602333  0.97238059     0.07100
C2489       C  0.44183551  0.88534269  0.69197033    -0.22500
C2490       C  0.43114922  0.86653905  0.67278594     0.09500
C2491       C  0.40282520  0.84394788  0.67306224     0.09900
C2492       C  0.38608772  0.84002695  0.69289003    -0.17400
C2493       C  0.39664828  0.85815985  0.71260695    -0.27800
C2494       C  0.42481652  0.88155516  0.71193058     0.18200
C2495       C  0.44981149  0.86890834  0.65303939     0.12200
C2496       C  0.39035291  0.82338408  0.65266359    -0.12200
H2497       H  0.36462926  0.82209666  0.69314044     0.12500
C2498       C  0.43740469  0.90184339  0.73237580    -0.23000
H2499       H  0.46367528  0.90263032  0.69150090     0.08100
C2500       C  0.44956392  0.88115308  0.63118662     0.04500
C2501       C  0.45935808  0.87456164  0.61071515    -0.20200
C2502       C  0.46893525  0.85563602  0.61171295    -0.12500
C2503       C  0.47241211  0.84628291  0.63417504     0.13200
C2504       C  0.46280314  0.85313144  0.65461542    -0.23000
C2505       C  0.43751692  0.89985185  0.62935049    -0.06000
H2506       H  0.45740817  0.88246568  0.59367446     0.14700
C2507       C  0.48532984  0.82837452  0.63679602    -0.16200
H2508       H  0.46321180  0.84414797  0.67157966     0.09000
H2509       H  0.45987446  0.91830007  0.72903218     0.06900
H2510       H  0.42562376  0.91270954  0.73510226     0.08100
H2511       H  0.43642845  0.89024833  0.74879007     0.07100
H2512       H  0.40218797  0.81254089  0.65014486     0.02000
H2513       H  0.39148452  0.83475364  0.63607235     0.02500
H2514       H  0.36783050  0.80697560  0.65585041     0.06000
H2515       H  0.43896566  0.90776065  0.61094947     0.05000
H2516       H  0.44942257  0.91833552  0.64124130    -0.00800
H2517       H  0.41494340  0.88800835  0.63470543     0.00700
H2518       H  0.50554677  0.83806650  0.62679231     0.04300
H2519       H  0.47060672  0.80670065  0.63015303     0.06300
H2520       H  0.48994219  0.82650782  0.65567230     0.07100
C2521       C  0.44354197  0.75636859  0.77928334    -0.22500
C2522       C  0.42130284  0.74730775  0.79559346     0.09500
C2523       C  0.41232745  0.72253999  0.80896412     0.09900
C2524       C  0.42417917  0.70615386  0.80425294    -0.17400
C2525       C  0.44437103  0.71363001  0.78618826    -0.27800
C2526       C  0.45526966  0.73985098  0.77434648     0.18200
C2527       C  0.40464473  0.76115332  0.79522474     0.12200
C2528       C  0.38949936  0.71283928  0.82753474    -0.12200
H2529       H  0.41622340  0.68631031  0.81357795     0.12500
C2530       C  0.47757167  0.75027859  0.75522724    -0.23000
H2531       H  0.45039686  0.77545169  0.76905533     0.08100
C2532       C  0.41504909  0.78849183  0.80419228     0.04500
C2533       C  0.39920634  0.80133757  0.80097235    -0.20200
C2534       C  0.37309108  0.78741341  0.78900755    -0.12500
C2535       C  0.36225500  0.75932267  0.78085516     0.13200
C2536       C  0.37831150  0.74681088  0.78401704    -0.23000
C2537       C  0.44278983  0.80401952  0.81716054    -0.06000
H2538       H  0.40763092  0.82263904  0.80738698     0.14700
C2539       C  0.33447300  0.74239044  0.76790200    -0.16200
H2540       H  0.37067244  0.72588021  0.77708087     0.09000
H2541       H  0.49586915  0.77115559  0.76045670     0.06900
H2542       H  0.46885113  0.75276848  0.73829910     0.08100
H2543       H  0.48553025  0.73609091  0.75188330     0.07100
H2544       H  0.36940039  0.70819116  0.81926364     0.02000
H2545       H  0.39597349  0.72961515  0.84108238     0.02500
H2546       H  0.38548690  0.69334951  0.83668775     0.06000
H2547       H  0.44762680  0.82502404  0.82342719     0.05000
H2548       H  0.46018394  0.80731436  0.80524926    -0.00800
H2549       H  0.44196722  0.79149711  0.83287367     0.00700
H2550       H  0.32977083  0.72098474  0.76310783     0.04300
H2551       H  0.31689298  0.73953615  0.77938148     0.06300
H2552       H  0.33511733  0.75318933  0.75108544     0.07100
C2553       C  0.19971745  0.77473625  0.64223393    -0.22500
C2554       C  0.22498259  0.80093732  0.63984701     0.09500
C2555       C  0.23486051  0.81225965  0.61688693     0.09900
C2556       C  0.22145754  0.79536106  0.59697135    -0.17400
C2557       C  0.19820018  0.76782397  0.59968698    -0.27800
C2558       C  0.18575494  0.75833559  0.62232475     0.18200
C2559       C  0.24381863  0.81191263  0.66076270     0.12200
C2560       C  0.26005516  0.84168792  0.61343214    -0.12200
H2561       H  0.23050732  0.80282735  0.57946271     0.12500
C2562       C  0.15825976  0.73071390  0.62603868    -0.23000
H2563       H  0.19190627  0.76598692  0.65978326     0.08100
C2564       C  0.23631452  0.81956308  0.68212405     0.04500
C2565       C  0.25249220  0.82377988  0.70262523    -0.20200
C2566       C  0.27615961  0.82078827  0.70216983    -0.12500
C2567       C  0.28492618  0.81558447  0.68001786     0.13200
C2568       C  0.26823264  0.81058162  0.65994317    -0.23000
C2569       C  0.21144235  0.82339512  0.68328457    -0.06000
H2570       H  0.24612472  0.82873323  0.71918352     0.14700
C2571       C  0.31149882  0.81483282  0.67692172    -0.16200
H2572       H  0.27368953  0.80437573  0.64349861     0.09000
H2573       H  0.14320057  0.73470320  0.63559757     0.06900
H2574       H  0.16192225  0.71620893  0.63685021     0.08100
H2575       H  0.14804063  0.72012860  0.60910042     0.07100
H2576       H  0.27934491  0.84373048  0.62120688     0.02000
H2577       H  0.25591614  0.85709143  0.62209503     0.02500
H2578       H  0.26433524  0.84730355  0.59430052     0.06000
H2579       H  0.20928419  0.83053664  0.70114036     0.05000
H2580       H  0.19154695  0.80325901  0.67941522    -0.00800
H2581       H  0.21428763  0.83956689  0.67009235     0.00700
H2582       H  0.31541470  0.81211386  0.65803786     0.04300
H2583       H  0.30985294  0.79681940  0.68694314     0.06300
H2584       H  0.32996058  0.83511349  0.68302762     0.07100
C2585       C  0.10838744  0.49784055  0.88672859    -0.22500
C2586       C  0.11250276  0.47632144  0.89443818     0.09500
C2587       C  0.11330198  0.45798491  0.87764472     0.09900
C2588       C  0.11094614  0.46224973  0.85334443    -0.17400
C2589       C  0.10807594  0.48464948  0.84529069    -0.27800
C2590       C  0.10638628  0.50246786  0.86243676     0.18200
C2591       C  0.11801288  0.47481786  0.92004498     0.12200
C2592       C  0.11721222  0.43429203  0.88538186    -0.12200
H2593       H  0.11205101  0.44832715  0.84051898     0.12500
C2594       C  0.10404798  0.52737215  0.85554085    -0.23000
H2595       H  0.10785292  0.51180235  0.89983960     0.08100
C2596       C  0.14574724  0.48977146  0.92913269     0.04500
C2597       C  0.15020901  0.48789533  0.95344975    -0.20200
C2598       C  0.12751338  0.47215454  0.96916706    -0.12500
C2599       C  0.09954378  0.45800104  0.96006369     0.13200
C2600       C  0.09524924  0.45922410  0.93555401    -0.23000
C2601       C  0.17057753  0.50810611  0.91316719    -0.06000
H2602       H  0.17159779  0.49933237  0.96032094     0.14700
C2603       C  0.07408605  0.44128349  0.97585615    -0.16200
H2604       H  0.07398449  0.44820835  0.92842852     0.09000
H2605       H  0.12242808  0.54215489  0.84438241     0.06900
H2606       H  0.10392289  0.53929700  0.87129687     0.08100
H2607       H  0.08407998  0.52009384  0.84573556     0.07100
H2608       H  0.09969203  0.41978639  0.89742904     0.02000
H2609       H  0.13757497  0.44294929  0.89491147     0.02500
H2610       H  0.11736197  0.42187042  0.87001127     0.06000
H2611       H  0.19079780  0.51868336  0.92313173     0.05000
H2612       H  0.16792781  0.52473151  0.90490655    -0.00800
H2613       H  0.17204086  0.49512672  0.89895630     0.00700
H2614       H  0.07247184  0.45559288  0.98859433     0.04300
H2615       H  0.07579168  0.42490546  0.98568680     0.06300
H2616       H  0.05415615  0.43046727  0.96549072     0.07100
C2617       C  0.13300728  0.60529007  0.63520501    -0.22500
C2618       C  0.11410620  0.60664766  0.65080269     0.09500
C2619       C  0.10363736  0.62430061  0.64512365     0.09900
C2620       C  0.11245923  0.64020558  0.62389193    -0.17400
C2621       C  0.13179108  0.63908629  0.60851303    -0.27800
C2622       C  0.14180288  0.62099202  0.61412316     0.18200
C2623       C  0.10806987  0.59101544  0.67366840     0.12200
C2624       C  0.08308687  0.62623429  0.66125165    -0.12200
H2625       H  0.10486142  0.65405475  0.61960017     0.12500
C2626       C  0.16144377  0.61762316  0.59783512    -0.23000
H2627       H  0.14143685  0.59221146  0.63985216     0.08100
C2628       C  0.09573166  0.56137240  0.67420275     0.04500
C2629       C  0.09791345  0.54851666  0.69488633    -0.20200
C2630       C  0.11154613  0.56443440  0.71517285    -0.12500
C2631       C  0.12176916  0.59369500  0.71533608     0.13200
C2632       C  0.11994983  0.60659604  0.69452149    -0.23000
C2633       C  0.08086874  0.54332576  0.65283335    -0.06000
H2634       H  0.09014972  0.52610088  0.69485488     0.14700
C2635       C  0.13674671  0.61243893  0.73635085    -0.16200
H2636       H  0.12986420  0.62935256  0.69408084     0.09000
H2637       H  0.16508408  0.60084954  0.60415621     0.06900
H2638       H  0.18232598  0.63755558  0.59699795     0.08100
H2639       H  0.15220167  0.61173368  0.57974972     0.07100
H2640       H  0.09288295  0.63479055  0.67879782     0.02000
H2641       H  0.06394087  0.60493629  0.66371083     0.02500
H2642       H  0.07645762  0.64037296  0.65377467     0.06000
H2643       H  0.07144529  0.52051435  0.65676869     0.05000
H2644       H  0.09580556  0.54880603  0.63783250    -0.00800
H2645       H  0.06359339  0.54656549  0.64732580     0.00700
H2646       H  0.15857413  0.62892496  0.73111430     0.04300
H2647       H  0.13822226  0.60096577  0.75179630     0.06300
H2648       H  0.12533032  0.62287789  0.74215512     0.07100
C2649       C  0.17646064  0.64724734  0.81067630    -0.22500
C2650       C  0.20493994  0.66396378  0.80398713     0.09500
C2651       C  0.21931248  0.65079058  0.79588851     0.09900
C2652       C  0.20424849  0.62144268  0.79274220    -0.17400
C2653       C  0.17510462  0.60493698  0.79724096    -0.27800
C2654       C  0.16124217  0.61783577  0.80726721     0.18200
C2655       C  0.21802301  0.69497961  0.80145420     0.12200
C2656       C  0.25011924  0.66781279  0.78906187    -0.12200
H2657       H  0.21494144  0.61151449  0.78536343     0.12500
C2658       C  0.13005979  0.60122903  0.81267890    -0.23000
H2659       H  0.16565621  0.65751243  0.81700720     0.08100
C2660       C  0.21103503  0.70613505  0.78186897     0.04500
C2661       C  0.22786516  0.73501761  0.77666883    -0.20200
C2662       C  0.25139558  0.75300590  0.79056805    -0.12500
C2663       C  0.25727437  0.74234914  0.81112156     0.13200
C2664       C  0.24033040  0.71336725  0.81644588    -0.23000
C2665       C  0.18697690  0.68732427  0.76547793    -0.06000
H2666       H  0.22370002  0.74334587  0.76078994     0.14700
C2667       C  0.28251873  0.76113272  0.82642175    -0.16200
H2668       H  0.24555592  0.70471135  0.83147516     0.09000
H2669       H  0.11793074  0.59106264  0.79625086     0.06900
H2670       H  0.12267684  0.61489531  0.81976982     0.08100
H2671       H  0.12541589  0.58484316  0.82625092     0.07100
H2672       H  0.26302745  0.67949139  0.80474989     0.02000
H2673       H  0.25344891  0.68307263  0.77477694     0.02500
H2674       H  0.25778830  0.65417846  0.78246433     0.06000
H2675       H  0.18510083  0.69941620  0.75061532     0.05000
H2676       H  0.16674270  0.67690345  0.77545783    -0.00800
H2677       H  0.19039018  0.67099768  0.75774078     0.00700
H2678       H  0.28421376  0.74938216  0.84166588     0.04300
H2679       H  0.28070095  0.77871697  0.83356320     0.06300
H2680       H  0.30219230  0.77000925  0.81575692     0.07100
C2681       C  0.31125426  0.58520275  0.79901810    -0.22500
C2682       C  0.29747575  0.55593846  0.80241089     0.09500
C2683       C  0.31356670  0.54314570  0.80481998     0.09900
C2684       C  0.34303754  0.55963404  0.80190059    -0.17400
C2685       C  0.35647258  0.58836670  0.79594355    -0.27800
C2686       C  0.34057054  0.60161228  0.79563965     0.18200
C2687       C  0.26645795  0.53912621  0.79898972     0.12200
C2688       C  0.29950401  0.51196751  0.80953942    -0.12200
H2689       H  0.35526870  0.54956464  0.80228409     0.12500
C2690       C  0.35425440  0.63291318  0.79138900    -0.23000
H2691       H  0.29876485  0.59491356  0.79737745     0.08100
C2692       C  0.24752612  0.53916222  0.81568683     0.04500
C2693       C  0.21925851  0.52824529  0.80909757    -0.20200
C2694       C  0.20974709  0.51742682  0.78622200    -0.12500
C2695       C  0.22831999  0.51587544  0.77004858     0.13200
C2696       C  0.25641663  0.52663768  0.77670114    -0.23000
C2697       C  0.25739114  0.55148713  0.84007520    -0.06000
H2698       H  0.20496810  0.52969399  0.82131115     0.14700
C2699       C  0.21971338  0.50470925  0.74512826    -0.16200
H2700       H  0.27108078  0.52688829  0.76381997     0.09000
H2701       H  0.33885067  0.63981392  0.79314428     0.06900
H2702       H  0.36330252  0.63865836  0.77323918     0.08100
H2703       H  0.37117116  0.64463128  0.80467562     0.07100
H2704       H  0.28501333  0.49982914  0.79474939     0.02000
H2705       H  0.28726777  0.50656979  0.82635744     0.02500
H2706       H  0.31518686  0.50542316  0.81123141     0.06000
H2707       H  0.23975420  0.54929347  0.85109490     0.05000
H2708       H  0.27374344  0.57428485  0.83868822    -0.00800
H2709       H  0.26647410  0.54034691  0.84926791     0.00700
H2710       H  0.23259095  0.52180202  0.73214160     0.04300
H2711       H  0.19715171  0.49651865  0.74144941     0.06300
H2712       H  0.22340025  0.48713942  0.74228056     0.07100
C2713       C  0.26950866  0.47785755  0.42039933    -0.22500
C2714       C  0.29541025  0.48084387  0.41447513     0.09500
C2715       C  0.31267609  0.48047694  0.43256307     0.09900
C2716       C  0.30379827  0.47747638  0.45630387    -0.17400
C2717       C  0.27807389  0.47516002  0.46264330    -0.27800
C2718       C  0.26053548  0.47504493  0.44418767     0.18200
C2719       C  0.30446622  0.48512984  0.38923253     0.12200
C2720       C  0.34073472  0.48373946  0.42680994    -0.12200
H2721       H  0.31748223  0.47752015  0.46999621     0.12500
C2722       C  0.23249785  0.47222294  0.44909537    -0.23000
H2723       H  0.25639450  0.47809558  0.40624729     0.08100
C2724       C  0.29793538  0.46220407  0.37427353     0.04500
C2725       C  0.30730916  0.46740592  0.35057989    -0.20200
C2726       C  0.32296508  0.49506498  0.34141363    -0.12500
C2727       C  0.32902193  0.51801790  0.35642869     0.13200
C2728       C  0.31983317  0.51271363  0.38019629    -0.23000
C2729       C  0.28075132  0.43225478  0.38325430    -0.06000
H2730       H  0.30218608  0.44975743  0.33911101     0.14700
C2731       C  0.34397487  0.54800814  0.34736241    -0.16200
H2732       H  0.32441878  0.53012782  0.39179099     0.09000
H2733       H  0.22165616  0.47201139  0.43245624     0.06900
H2734       H  0.23566367  0.49037344  0.45985124     0.08100
H2735       H  0.21835524  0.45209821  0.45862362     0.07100
H2736       H  0.35464706  0.50435348  0.41787925     0.02000
H2737       H  0.33759389  0.46649368  0.41483882     0.02500
H2738       H  0.35166529  0.48296476  0.44303735     0.06000
H2739       H  0.27741389  0.41678831  0.36923102     0.05000
H2740       H  0.25973811  0.42768181  0.38931152    -0.00800
H2741       H  0.29172690  0.42922801  0.39836245     0.00700
H2742       H  0.34533299  0.56290700  0.36116782     0.04300
H2743       H  0.33232716  0.54950811  0.33197316     0.06300
H2744       H  0.36585833  0.55489340  0.34191542     0.07100
C2745       C  0.18198385  0.54261863  0.52243626    -0.22500
C2746       C  0.19739536  0.56622789  0.50768466     0.09500
C2747       C  0.22055296  0.56931980  0.49460185     0.09900
C2748       C  0.22905946  0.54985903  0.49806184    -0.17400
C2749       C  0.21502310  0.52753131  0.51431604    -0.27800
C2750       C  0.19055428  0.52328162  0.52610125     0.18200
C2751       C  0.19301617  0.59010613  0.51085169     0.12200
C2752       C  0.23696175  0.59374391  0.47776148    -0.12200
H2753       H  0.24792182  0.55313892  0.48921531     0.12500
C2754       C  0.17445151  0.50038748  0.54434129    -0.23000
H2755       H  0.16454757  0.54059075  0.53281799     0.08100
C2756       C  0.16808045  0.58893698  0.50382317     0.04500
C2757       C  0.16367075  0.61057937  0.51091175    -0.20200
C2758       C  0.18340835  0.63308750  0.52520172    -0.12500
C2759       C  0.20882965  0.63447051  0.53159639     0.13200
C2760       C  0.21314356  0.61298029  0.52429432    -0.23000
C2761       C  0.14608252  0.56477445  0.48914580    -0.06000
H2762       H  0.14435829  0.60954698  0.50570965     0.14700
C2763       C  0.23103031  0.65747530  0.54716541    -0.16200
H2764       H  0.23195971  0.61332598  0.53001858     0.09000
H2765       H  0.15191094  0.48744666  0.53906111     0.06900
H2766       H  0.17581829  0.51009741  0.56190473     0.08100
H2767       H  0.18235157  0.48598870  0.54647223     0.07100
H2768       H  0.24683622  0.61405368  0.48748502     0.02000
H2769       H  0.22254136  0.59347166  0.46398850     0.02500
H2770       H  0.25408910  0.59260371  0.46867332     0.06000
H2771       H  0.12819793  0.56752269  0.48467303     0.05000
H2772       H  0.13744092  0.54463552  0.49908107    -0.00800
H2773       H  0.15569861  0.56341864  0.47229882     0.00700
H2774       H  0.22152761  0.65800522  0.56435955     0.04300
H2775       H  0.24043429  0.67820564  0.53805034     0.06300
H2776       H  0.24858511  0.65405811  0.55119535     0.07100
C2777       C  0.33899070  0.54405767  0.64250991    -0.22500
C2778       C  0.35100334  0.52852609  0.64966025     0.09500
C2779       C  0.34671477  0.50540851  0.63596053     0.09900
C2780       C  0.33114366  0.49893645  0.61475806    -0.17400
C2781       C  0.31903877  0.51451494  0.60760127    -0.27800
C2782       C  0.32285936  0.53727623  0.62180320     0.18200
C2783       C  0.36840824  0.53800309  0.67141545     0.12200
C2784       C  0.35811012  0.48741775  0.64390531    -0.12200
H2785       H  0.32805817  0.48146424  0.60392117     0.12500
C2786       C  0.31081631  0.55516389  0.61500569    -0.23000
H2787       H  0.34244659  0.56177355  0.65324901     0.08100
C2788       C  0.39730151  0.55919190  0.67021305     0.04500
C2789       C  0.41117994  0.57394662  0.69087567    -0.20200
C2790       C  0.39680855  0.56802202  0.71263114    -0.12500
C2791       C  0.36838320  0.54529018  0.71419574     0.13200
C2792       C  0.35458961  0.53050761  0.69346475    -0.23000
C2793       C  0.41301935  0.56745815  0.64689632    -0.06000
H2794       H  0.43293146  0.59135107  0.68979789     0.14700
C2795       C  0.35116938  0.53733906  0.73677373    -0.16200
H2796       H  0.33229143  0.51441649  0.69419632     0.09000
H2797       H  0.31768508  0.57316474  0.62735747     0.06900
H2798       H  0.28740164  0.54226817  0.61559921     0.08100
H2799       H  0.31791792  0.56396564  0.59688427     0.07100
H2800       H  0.34915795  0.47807297  0.66157357     0.02000
H2801       H  0.38144611  0.50036075  0.64525432     0.02500
H2802       H  0.35247320  0.46991741  0.63128263     0.06000
H2803       H  0.43537948  0.58474868  0.64913142     0.05000
H2804       H  0.40285540  0.57480154  0.63427082    -0.00800
H2805       H  0.41292782  0.54909296  0.63914838     0.00700
H2806       H  0.33260773  0.53951774  0.73407977     0.04300
H2807       H  0.36298427  0.55047468  0.75220706     0.06300
H2808       H  0.34354846  0.51501670  0.74132688     0.07100
C2809       C  0.15584696  0.44270012  0.61730424    -0.22500
C2810       C  0.17187189  0.45488391  0.63794436     0.09500
C2811       C  0.20125206  0.46614258  0.63742364     0.09900
C2812       C  0.21415823  0.46650870  0.61599313    -0.17400
C2813       C  0.19866672  0.45675341  0.59484191    -0.27800
C2814       C  0.16894605  0.44358031  0.59560802     0.18200
C2815       C  0.15887433  0.45993630  0.65886161     0.12200
C2816       C  0.21934900  0.47975905  0.65905279    -0.12200
H2817       H  0.23696936  0.47662497  0.61534094     0.12500
C2818       C  0.15075124  0.43187980  0.57382639    -0.23000
H2819       H  0.13324182  0.43406451  0.61779034     0.08100
C2820       C  0.15740101  0.48449570  0.65996815     0.04500
C2821       C  0.15010206  0.49177487  0.68144695    -0.20200
C2822       C  0.14430431  0.47518109  0.70194070    -0.12500
C2823       C  0.14485786  0.45004848  0.70065860     0.13200
C2824       C  0.15204155  0.44265912  0.67902832    -0.23000
C2825       C  0.16485513  0.50375664  0.63874878    -0.06000
H2826       H  0.14980785  0.51110286  0.68247863     0.14700
C2827       C  0.13978727  0.43204949  0.72233502    -0.16200
H2828       H  0.15373467  0.42411566  0.67812326     0.09000
H2829       H  0.13963120  0.44333413  0.57059499     0.06900
H2830       H  0.13478500  0.40916339  0.57667888     0.08100
H2831       H  0.16300846  0.43368646  0.55768590     0.07100
H2832       H  0.21249405  0.46405244  0.67365484     0.02000
H2833       H  0.21737565  0.49769851  0.66495219     0.02500
H2834       H  0.24203018  0.48806279  0.65537254     0.06000
H2835       H  0.16294367  0.52224466  0.64274651     0.05000
H2836       H  0.15043450  0.49201196  0.62379785    -0.00800
H2837       H  0.18697019  0.51176118  0.63317806     0.00700
H2838       H  0.11806651  0.42369110  0.72913927     0.04300
H2839       H  0.15529426  0.44481735  0.73636796     0.06300
H2840       H  0.14205014  0.41377474  0.71831744     0.07100
C2841       C  0.38112986  0.62211337  0.53675610    -0.22500
C2842       C  0.37783491  0.63408612  0.51606133     0.09500
C2843       C  0.35873433  0.61655103  0.49838548     0.09900
C2844       C  0.34140254  0.58739676  0.50281890    -0.17400
C2845       C  0.34344290  0.57573833  0.52431577    -0.27800
C2846       C  0.36433312  0.59309542  0.54102311     0.18200
C2847       C  0.39329759  0.66521023  0.51456920     0.12200
C2848       C  0.35644596  0.62873715  0.47519709    -0.12200
H2849       H  0.32530256  0.57395628  0.49006947     0.12500
C2850       C  0.36911424  0.58174644  0.56372401    -0.23000
H2851       H  0.39629060  0.63566501  0.55004648     0.08100
C2852       C  0.38154236  0.68027078  0.52400525     0.04500
C2853       C  0.39872085  0.70956574  0.52682470    -0.20200
C2854       C  0.42760554  0.72425625  0.52079554    -0.12500
C2855       C  0.43874053  0.70915477  0.50964640     0.13200
C2856       C  0.42135730  0.67978164  0.50682063    -0.23000
C2857       C  0.35116868  0.66525228  0.53209536    -0.06000
H2858       H  0.38970538  0.72075346  0.53495810     0.14700
C2859       C  0.46887302  0.72329876  0.50103858    -0.16200
H2860       H  0.43001751  0.66786594  0.49950688     0.09000
H2861       H  0.36513034  0.59150744  0.57921134     0.06900
H2862       H  0.39136643  0.58714229  0.56436428     0.08100
H2863       H  0.35545573  0.55849680  0.56530594     0.07100
H2864       H  0.37718109  0.63925504  0.46594232     0.02000
H2865       H  0.35029822  0.64448475  0.47841780     0.02500
H2866       H  0.34045928  0.61212205  0.46331665     0.06000
H2867       H  0.34542495  0.68020502  0.53924000     0.05000
H2868       H  0.34753090  0.64982179  0.54631007    -0.00800
H2869       H  0.33696299  0.65390932  0.51693798     0.00700
H2870       H  0.48366405  0.73154262  0.51628696     0.04300
H2871       H  0.47344026  0.74074172  0.48860941     0.06300
H2872       H  0.47292186  0.70835773  0.49138186     0.07100
C2873       C  0.22178043  0.29743949  0.56175266    -0.22500
C2874       C  0.22630596  0.31971619  0.57646871     0.09500
C2875       C  0.21594330  0.31407144  0.59997109     0.09900
C2876       C  0.20059733  0.28610407  0.60808442    -0.17400
C2877       C  0.19469998  0.26351055  0.59308199    -0.27800
C2878       C  0.20599784  0.26930001  0.56969106     0.18200
C2879       C  0.23611435  0.34758717  0.56562709     0.12200
C2880       C  0.21953705  0.33741715  0.61601871    -0.12200
H2881       H  0.19204486  0.28177037  0.62596317     0.12500
C2882       C  0.20011318  0.24606969  0.55247547    -0.23000
H2883       H  0.22926366  0.30202449  0.54354228     0.08100
C2884       C  0.26422384  0.37043854  0.56706581     0.04500
C2885       C  0.27088567  0.39717546  0.55883531    -0.20200
C2886       C  0.24997915  0.40143433  0.54917621    -0.12500
C2887       C  0.22179437  0.37791563  0.54737265     0.13200
C2888       C  0.21552275  0.35142481  0.55537573    -0.23000
C2889       C  0.28700410  0.36652808  0.57722749    -0.06000
H2890       H  0.29244914  0.41482175  0.56016434     0.14700
C2891       C  0.19756494  0.38021421  0.53815163    -0.16200
H2892       H  0.19398294  0.33355435  0.55449674     0.09000
H2893       H  0.20959601  0.23406239  0.55911120     0.06900
H2894       H  0.20920733  0.25452348  0.53462681     0.08100
H2895       H  0.17701051  0.23152251  0.55034030     0.07100
H2896       H  0.20928956  0.34806622  0.60797180     0.02000
H2897       H  0.24230902  0.35313722  0.61864928     0.02500
H2898       H  0.20983699  0.32927382  0.63375093     0.06000
H2899       H  0.30791386  0.38653289  0.57696215     0.05000
H2900       H  0.28861091  0.35061636  0.56660726    -0.00800
H2901       H  0.28193332  0.35909679  0.59589935     0.00700
H2902       H  0.17711789  0.35975158  0.53911003     0.04300
H2903       H  0.20110417  0.38677450  0.51921174     0.06300
H2904       H  0.19528452  0.39552892  0.54903164     0.07100
C2905       C  0.93948054  0.70547231  0.89523979    -0.22500
C2906       C  0.91109130  0.68381601  0.89633857     0.09500
C2907       C  0.88975987  0.68917078  0.89017297     0.09900
C2908       C  0.89731077  0.71655971  0.88380452    -0.17400
C2909       C  0.92567320  0.73880724  0.88369370    -0.27800
C2910       C  0.94716685  0.73302702  0.88888744     0.18200
C2911       C  0.90356136  0.65613831  0.90600134     0.12200
C2912       C  0.85896049  0.66610100  0.89093932    -0.12200
H2913       H  0.88079287  0.72076055  0.87964619     0.12500
C2914       C  0.97814301  0.75542616  0.88750555    -0.23000
H2915       H  0.95558308  0.70087264  0.89989587     0.08100
C2916       C  0.89785131  0.63347636  0.89105049     0.04500
C2917       C  0.88468532  0.60619976  0.90067588    -0.20200
C2918       C  0.87667982  0.60135545  0.92471432    -0.12500
C2919       C  0.88497069  0.62449442  0.94005124     0.13200
C2920       C  0.89835149  0.65170606  0.93042893    -0.23000
C2921       C  0.90428799  0.63793195  0.86485021    -0.06000
H2922       H  0.87854137  0.58840773  0.88901009     0.14700
C2923       C  0.87964806  0.62124132  0.96645441    -0.16200
H2924       H  0.90336461  0.66942843  0.94184497     0.09000
H2925       H  0.99167401  0.74646136  0.89044176     0.06900
H2926       H  0.98364260  0.77164002  0.90138135     0.08100
H2927       H  0.98322682  0.76545033  0.86964317     0.07100
H2928       H  0.85298598  0.65748089  0.90924314     0.02000
H2929       H  0.85500909  0.64883048  0.87864535     0.02500
H2930       H  0.84505846  0.67397093  0.88557451     0.06000
H2931       H  0.89846485  0.61789113  0.85574027     0.05000
H2932       H  0.92723483  0.65306255  0.86216234    -0.00800
H2933       H  0.89231785  0.64656668  0.85643803     0.00700
H2934       H  0.89996807  0.63422820  0.97599254     0.04300
H2935       H  0.87031447  0.59919328  0.97264168     0.06300
H2936       H  0.86521750  0.62861189  0.97137581     0.07100
C2937       C  0.86394873  0.45702512  0.78786888    -0.22500
C2938       C  0.84224789  0.45358407  0.80283305     0.09500
C2939       C  0.81405265  0.43217413  0.79827939     0.09900
C2940       C  0.80814532  0.41462705  0.77868490    -0.17400
C2941       C  0.82971136  0.41777407  0.76357661    -0.27800
C2942       C  0.85812217  0.43913525  0.76832958     0.18200
C2943       C  0.84897153  0.47144526  0.82400329     0.12200
C2944       C  0.79018182  0.42770960  0.81421160    -0.12200
H2945       H  0.78639104  0.39839066  0.77501670     0.12500
C2946       C  0.88289949  0.44301465  0.75412204    -0.23000
H2947       H  0.88560785  0.47329739  0.79182142     0.08100
C2948       C  0.85193693  0.46174083  0.84630932     0.04500
C2949       C  0.84992992  0.47464288  0.86685999    -0.20200
C2950       C  0.84440130  0.49648094  0.86540270    -0.12500
C2951       C  0.84484554  0.50836237  0.84308620     0.13200
C2952       C  0.84703889  0.49553847  0.82249250    -0.23000
C2953       C  0.85512280  0.43651682  0.84841604    -0.06000
H2954       H  0.84987282  0.46578944  0.88406823     0.14700
C2955       C  0.84242729  0.53399467  0.84048283    -0.16200
H2956       H  0.84533402  0.50318772  0.80522047     0.09000
H2957       H  0.89791015  0.44153939  0.76615137     0.06900
H2958       H  0.89392117  0.46417959  0.74559360     0.08100
H2959       H  0.87692637  0.42692122  0.74020118     0.07100
H2960       H  0.78920496  0.44713969  0.81459453     0.02000
H2961       H  0.79353406  0.42261964  0.83252856     0.02500
H2962       H  0.76942874  0.41004859  0.80796120     0.06000
H2963       H  0.85690284  0.43160863  0.86724049     0.05000
H2964       H  0.87447886  0.44083785  0.83886587    -0.00800
H2965       H  0.83652186  0.41762497  0.84056980     0.00700
H2966       H  0.86103187  0.55065062  0.83054077     0.04300
H2967       H  0.84186362  0.54310061  0.85784077     0.06300
H2968       H  0.82298174  0.52833705  0.83044703     0.07100
C2969       C  0.94208941  0.38540118  0.71153584    -0.22500
C2970       C  0.94949449  0.39824954  0.73396429     0.09500
C2971       C  0.92877107  0.39840930  0.74830461     0.09900
C2972       C  0.90150764  0.38728759  0.73931470    -0.17400
C2973       C  0.89449691  0.37608216  0.71633015    -0.27800
C2974       C  0.91467684  0.37417899  0.70248098     0.18200
C2975       C  0.97967054  0.41558274  0.74054144     0.12200
C2976       C  0.93568397  0.41114896  0.77280608    -0.12200
H2977       H  0.88572022  0.38807671  0.75002704     0.12500
C2978       C  0.90861075  0.36199719  0.67776823    -0.23000
H2979       H  0.95815608  0.38544576  0.70056364     0.08100
C2980       C  0.99385211  0.40454007  0.75282609     0.04500
C2981       C  0.02197657  0.42289504  0.76005926    -0.20200
C2982       C  0.03604159  0.45213646  0.75556563    -0.12500
C2983       C  0.02155341  0.46293349  0.74279212     0.13200
C2984       C  0.99373317  0.44441623  0.73538609    -0.23000
C2985       C  0.97914642  0.37353235  0.75851855    -0.06000
H2986       H  0.03277874  0.41442310  0.76970134     0.14700
C2987       C  0.03492358  0.49378372  0.73650063    -0.16200
H2988       H  0.98247798  0.45255602  0.72592391     0.09000
H2989       H  0.91165245  0.34379557  0.67721842     0.06900
H2990       H  0.92344319  0.37830485  0.66498353     0.08100
H2991       H  0.88686110  0.35459496  0.67173526     0.07100
H2992       H  0.95227075  0.43390082  0.77171708     0.02000
H2993       H  0.94338656  0.40009762  0.78399552     0.02500
H2994       H  0.91691108  0.40927742  0.78167023     0.06000
H2995       H  0.99315254  0.36831647  0.76835502     0.05000
H2996       H  0.97247721  0.36116173  0.74179607    -0.00800
H2997       H  0.96022238  0.36715858  0.76965420     0.00700
H2998       H  0.05480193  0.50114629  0.72650368     0.04300
H2999       H  0.03921378  0.50651873  0.75285290     0.06300
H3000       H  0.02094664  0.49767844  0.72516034     0.07100
C3001       C  0.77679095  0.38830789  0.97267811    -0.22500
C3002       C  0.77171578  0.36959192  0.95401143     0.09500
C3003       C  0.77870759  0.37991216  0.93052481     0.09900
C3004       C  0.79014972  0.40869101  0.92620769    -0.17400
C3005       C  0.79394285  0.42738236  0.94461546    -0.27800
C3006       C  0.78755545  0.41712907  0.96834080     0.18200
C3007       C  0.75570516  0.33883706  0.95865234     0.12200
C3008       C  0.77256389  0.36036063  0.90977256    -0.12200
H3009       H  0.79505748  0.41648466  0.90808831     0.12500
C3010       C  0.78984175  0.43498562  0.98939566    -0.23000
H3011       H  0.77095600  0.38009135  0.99059879     0.08100
C3012       C  0.76890415  0.32306679  0.95887057     0.04500
C3013       C  0.75217778  0.29354611  0.95729629    -0.20200
C3014       C  0.72252912  0.27950338  0.95578776    -0.12500
C3015       C  0.70936676  0.29531847  0.95894307     0.13200
C3016       C  0.72622427  0.32487178  0.96000168    -0.23000
C3017       C  0.80056167  0.33742967  0.96038807    -0.06000
H3018       H  0.76249399  0.28161619  0.95585978     0.14700
C3019       C  0.67775932  0.28149517  0.96120465    -0.16200
H3020       H  0.71632496  0.33727082  0.96066363     0.09000
H3021       H  0.80540636  0.43575680  0.00221267     0.06900
H3022       H  0.76899093  0.42533607  0.99837470     0.08100
H3023       H  0.79621942  0.45686210  0.98484108     0.07100
H3024       H  0.74958845  0.34442426  0.90900354     0.02000
H3025       H  0.78428544  0.34934579  0.91161789     0.02500
H3026       H  0.77886426  0.37197183  0.89259505     0.06000
H3027       H  0.80740350  0.32190596  0.96068707     0.05000
H3028       H  0.80805638  0.35004817  0.97695881    -0.00800
H3029       H  0.81078697  0.35168703  0.94497258     0.00700
H3030       H  0.67177110  0.29700198  0.96618573     0.04300
H3031       H  0.66970279  0.26502968  0.97528980     0.06300
H3032       H  0.66721188  0.27198060  0.94409897     0.07100
C3033       C  0.77699197  0.27072655  0.85518719    -0.22500
C3034       C  0.76910118  0.25279245  0.83550210     0.09500
C3035       C  0.75165438  0.22332117  0.83864406     0.09900
C3036       C  0.74023887  0.21257885  0.86119195    -0.17400
C3037       C  0.74543127  0.23085799  0.88024204    -0.27800
C3038       C  0.76501274  0.26010245  0.87756567     0.18200
C3039       C  0.77380256  0.26562758  0.81167408     0.12200
C3040       C  0.74347809  0.20353211  0.81785231    -0.12200
H3041       H  0.72496717  0.19019473  0.86334279     0.12500
C3042       C  0.77202001  0.28023102  0.89798634    -0.23000
H3043       H  0.79046233  0.29334937  0.85255606     0.08100
C3044       C  0.75360105  0.27081470  0.80194805     0.04500
C3045       C  0.75885798  0.28431581  0.77999743    -0.20200
C3046       C  0.78396326  0.29307966  0.76733237    -0.12500
C3047       C  0.80396875  0.28709498  0.77684581     0.13200
C3048       C  0.79860870  0.27354387  0.79907790    -0.23000
C3049       C  0.72648844  0.26234403  0.81487629    -0.06000
H3050       H  0.74316541  0.28830582  0.77286799     0.14700
C3051       C  0.83101710  0.29506971  0.76407423    -0.16200
H3052       H  0.81390357  0.26929602  0.80681125     0.09000
H3053       H  0.75285122  0.27994745  0.90397007     0.06900
H3054       H  0.78811724  0.30228801  0.89291337     0.08100
H3055       H  0.78052174  0.27394707  0.91300495     0.07100
H3056       H  0.76277374  0.20596347  0.80958544     0.02000
H3057       H  0.73201164  0.20838583  0.80440356     0.02500
H3058       H  0.72954611  0.18114517  0.82337120     0.06000
H3059       H  0.71288328  0.26774831  0.80461307     0.05000
H3060       H  0.73122406  0.27329668  0.83225095    -0.00800
H3061       H  0.71439953  0.23923299  0.81791190     0.00700
H3062       H  0.84399286  0.28884942  0.77433545     0.04300
H3063       H  0.84390133  0.31828092  0.76133493     0.06300
H3064       H  0.82612887  0.28412144  0.74667877     0.07100
C3065       C  0.71303948  0.09169293  0.93378023    -0.22500
C3066       C  0.71301445  0.08538477  0.90969653     0.09500
C3067       C  0.69834683  0.09225009  0.89326168     0.09900
C3068       C  0.68578275  0.10715659  0.90105737    -0.17400
C3069       C  0.68795453  0.11568901  0.92482297    -0.27800
C3070       C  0.70054849  0.10660254  0.94163274     0.18200
C3071       C  0.73138352  0.07485557  0.90191462     0.12200
C3072       C  0.69693850  0.08484262  0.86738635    -0.12200
H3073       H  0.67583070  0.11377665  0.88822129     0.12500
C3074       C  0.70123507  0.11215839  0.96790580    -0.23000
H3075       H  0.72386551  0.08587682  0.94643698     0.08100
C3076       C  0.75990802  0.09399091  0.89598058     0.04500
C3077       C  0.77739114  0.08366882  0.89012942    -0.20200
C3078       C  0.76732642  0.05457284  0.89048462    -0.12500
C3079       C  0.73849326  0.03534570  0.89621386     0.13200
C3080       C  0.72089083  0.04579151  0.90178669    -0.23000
C3081       C  0.77206597  0.12543106  0.89633769    -0.06000
H3082       H  0.79935128  0.09859602  0.88581826     0.14700
C3083       C  0.72592116  0.00386974  0.89615364    -0.16200
H3084       H  0.69893518  0.03127910  0.90640087     0.09000
H3085       H  0.72347030  0.12576644  0.97382646     0.06900
H3086       H  0.69139956  0.09180531  0.97773179     0.08100
H3087       H  0.68943042  0.12241143  0.97282094     0.07100
H3088       H  0.68660021  0.06161928  0.86548920     0.02000
H3089       H  0.71854705  0.09525761  0.85977087     0.02500
H3090       H  0.68463546  0.09175020  0.85695746     0.06000
H3091       H  0.79476314  0.13746578  0.89132431     0.05000
H3092       H  0.77012073  0.13209005  0.91446148    -0.00800
H3093       H  0.76052500  0.13105325  0.88361852     0.00700
H3094       H  0.73587034  0.99792417  0.91020005     0.04300
H3095       H  0.72923139  0.99711253  0.87852506     0.06300
H3096       H  0.70284715  0.99215209  0.89973679     0.07100
C3097       C  0.68067059  0.27459146  0.65809091    -0.22500
C3098       C  0.66395423  0.24907138  0.67026909     0.09500
C3099       C  0.67688029  0.23886457  0.68551293     0.09900
C3100       C  0.70590623  0.25591126  0.69008646    -0.17400
C3101       C  0.72182894  0.28298047  0.68017604    -0.27800
C3102       C  0.70949718  0.29186114  0.66302479     0.18200
C3103       C  0.63303519  0.23655602  0.67093204     0.12200
C3104       C  0.65972154  0.21107250  0.69838896    -0.12200
H3105       H  0.71557324  0.24921341  0.70316718     0.12500
C3106       C  0.72594844  0.31995963  0.65046353    -0.23000
H3107       H  0.67072696  0.28212657  0.64609098     0.08100
C3108       C  0.62154932  0.24956441  0.68441915     0.04500
C3109       C  0.59250613  0.23492523  0.68868414    -0.20200
C3110       C  0.57459889  0.20722448  0.68047769    -0.12500
C3111       C  0.58585892  0.19494878  0.66553973     0.13200
C3112       C  0.61503568  0.20999509  0.66079726    -0.23000
C3113       C  0.64003605  0.27819702  0.69564302    -0.06000
H3114       H  0.58396006  0.24470965  0.69966585     0.14700
C3115       C  0.56784409  0.16556137  0.65568571    -0.16200
H3116       H  0.62412101  0.20037272  0.65028716     0.09000
H3117       H  0.71733439  0.33333845  0.65539601     0.06900
H3118       H  0.72404230  0.31657073  0.63095326     0.08100
H3119       H  0.74875793  0.33153936  0.65481435     0.07100
H3120       H  0.64934939  0.19363239  0.68532265     0.02000
H3121       H  0.64334822  0.21126087  0.70956133     0.02500
H3122       H  0.67308137  0.20674052  0.71013359     0.06000
H3123       H  0.62757851  0.28453984  0.70650655     0.05000
H3124       H  0.65109317  0.29447945  0.68165477    -0.00800
H3125       H  0.65584221  0.27784135  0.70745273     0.00700
H3126       H  0.58036967  0.15948215  0.64461990     0.04300
H3127       H  0.55096042  0.16438524  0.64429875     0.06300
H3128       H  0.55829063  0.15005648  0.67045654     0.07100
C3129       C  0.56474966  0.13031131  0.78094694    -0.22500
C3130       C  0.56370349  0.14051902  0.80343454     0.09500
C3131       C  0.54715791  0.15264370  0.80690029     0.09900
C3132       C  0.53166120  0.15382878  0.78788132    -0.17400
C3133       C  0.53368038  0.14507267  0.76489139    -0.27800
C3134       C  0.55026197  0.13273587  0.76147455     0.18200
C3135       C  0.58334523  0.14257515  0.82216521     0.12200
C3136       C  0.54756145  0.16649909  0.83009137    -0.12200
H3137       H  0.51905096  0.16321479  0.79084822     0.12500
C3138       C  0.55406459  0.12331957  0.73740074    -0.23000
H3139       H  0.57809745  0.12167712  0.77841650     0.08100
C3140       C  0.57390110  0.12549751  0.84267348     0.04500
C3141       C  0.59226401  0.13269775  0.86207098    -0.20200
C3142       C  0.61999028  0.15646261  0.86137470    -0.12500
C3143       C  0.63018131  0.17168737  0.83964663     0.13200
C3144       C  0.61159718  0.16450818  0.82042087    -0.23000
C3145       C  0.54451733  0.09974697  0.84410276    -0.06000
H3146       H  0.58437823  0.12030657  0.87820943     0.14700
C3147       C  0.66021599  0.19584753  0.83633739    -0.16200
H3148       H  0.61870997  0.17704882  0.80429654     0.09000
H3149       H  0.53331681  0.10645525  0.73043153     0.06900
H3150       H  0.56807580  0.11465463  0.73819809     0.08100
H3151       H  0.56385734  0.14153267  0.72492125     0.07100
H3152       H  0.56950042  0.18361982  0.83423166     0.02000
H3153       H  0.53948482  0.15096949  0.84482409     0.02500
H3154       H  0.53429089  0.17601093  0.82930959     0.06000
H3155       H  0.54066671  0.08865428  0.86140676     0.05000
H3156       H  0.54170190  0.08480745  0.82977436    -0.00800
H3157       H  0.52836221  0.10552684  0.84195014     0.00700
H3158       H  0.66444133  0.20337093  0.81762823     0.04300
H3159       H  0.67510882  0.18893399  0.84093926     0.06300
H3160       H  0.66441376  0.21407334  0.84748908     0.07100
C3161       C  0.35604812  0.95943543  0.72922183    -0.22500
C3162       C  0.37494989  0.98160861  0.74396765     0.09500
C3163       C  0.38203828  0.97561414  0.76632332     0.09900
C3164       C  0.37098373  0.94742812  0.77305694    -0.17400
C3165       C  0.35263333  0.92504752  0.75810226    -0.27800
C3166       C  0.34467694  0.93114143  0.73599592     0.18200
C3167       C  0.39010026  0.01074610  0.73442777     0.12200
C3168       C  0.40178953  0.99904044  0.78280078    -0.12200
H3169       H  0.37692917  0.94283671  0.79004405     0.12500
C3170       C  0.32547783  0.90815354  0.71889064    -0.23000
H3171       H  0.35103059  0.96436064  0.71197757     0.08100
C3172       C  0.41525258  0.02084570  0.72138532     0.04500
C3173       C  0.43023160  0.04895045  0.71374077    -0.20200
C3174       C  0.42108353  0.06757541  0.71919557    -0.12500
C3175       C  0.39574429  0.05738712  0.73227763     0.13200
C3176       C  0.38036489  0.02889738  0.73953321    -0.23000
C3177       C  0.42673833  0.00213186  0.71611101    -0.06000
H3178       H  0.44964418  0.05659538  0.70381653     0.14700
C3179       C  0.38572807  0.07665597  0.73986003    -0.16200
H3180       H  0.36117878  0.02094182  0.74986447     0.09000
H3181       H  0.33441820  0.89491609  0.71448897     0.06900
H3182       H  0.32287162  0.91694253  0.70202088     0.08100
H3183       H  0.30417485  0.89477598  0.72686071     0.07100
H3184       H  0.39271400  0.01209738  0.78739802     0.02000
H3185       H  0.42259788  0.01259420  0.77405802     0.02500
H3186       H  0.40525546  0.99070998  0.79956244     0.06000
H3187       H  0.44684405  0.01349808  0.70594330     0.05000
H3188       H  0.41121353  0.98369201  0.70545759    -0.00800
H3189       H  0.43088375  0.99454994  0.73298255     0.00700
H3190       H  0.36622778  0.06537839  0.75082005     0.04300
H3191       H  0.38095836  0.08535428  0.72403102     0.06300
H3192       H  0.40233726  0.09417473  0.75067116     0.07100
C3193       C  0.55972069  0.34394672  0.69480080    -0.22500
C3194       C  0.53151999  0.33265940  0.68811631     0.09500
C3195       C  0.52169491  0.35094293  0.68330041     0.09900
C3196       C  0.54019424  0.38021324  0.68602612    -0.17400
C3197       C  0.56812571  0.39145518  0.69379567    -0.27800
C3198       C  0.57827351  0.37309141  0.69740789     0.18200
C3199       C  0.51267815  0.30151564  0.68779184     0.12200
C3200       C  0.49161650  0.33948047  0.67580843    -0.12200
H3201       H  0.53232833  0.39423097  0.68340269     0.12500
C3202       C  0.60850582  0.38340381  0.70381934    -0.23000
H3203       H  0.56724673  0.32978279  0.69829870     0.08100
C3204       C  0.51497069  0.28508235  0.66991360     0.04500
C3205       C  0.50200741  0.25584919  0.67332137    -0.20200
C3206       C  0.48683146  0.24281791  0.69417116    -0.12500
C3207       C  0.48232887  0.25891183  0.71102628     0.13200
C3208       C  0.49538791  0.28814879  0.70760369    -0.23000
C3209       C  0.53209883  0.29858459  0.64777817    -0.06000
H3210       H  0.50551990  0.24344187  0.66052435     0.14700
C3211       C  0.46584951  0.24643492  0.73368193    -0.16200
H3212       H  0.49359862  0.30085130  0.72126678     0.09000
H3213       H  0.61726271  0.37473016  0.69104359     0.06900
H3214       H  0.60937709  0.37605888  0.72198004     0.08100
H3215       H  0.62240501  0.40666374  0.70299941     0.07100
H3216       H  0.47696374  0.32556039  0.68995101     0.02000
H3217       H  0.48721294  0.32714096  0.65918940     0.02500
H3218       H  0.48742659  0.35666033  0.67249791     0.06000
H3219       H  0.53120950  0.28261115  0.63539292     0.05000
H3220       H  0.55454789  0.31349205  0.65245701    -0.00800
H3221       H  0.52372081  0.31025916  0.63839278     0.00700
H3222       H  0.48007183  0.25603588  0.74919250     0.04300
H3223       H  0.45590283  0.22324798  0.73480465     0.06300
H3224       H  0.44870520  0.25102923  0.73485834     0.07100
C3225       C  0.71930017  0.56290542  0.80372365    -0.22500
C3226       C  0.71304088  0.54365678  0.82228559     0.09500
C3227       C  0.68796644  0.51685344  0.82144278     0.09900
C3228       C  0.67059580  0.50935325  0.80142883    -0.17400
C3229       C  0.67798855  0.52752789  0.78174856    -0.27800
C3230       C  0.70237076  0.55517949  0.78322709     0.18200
C3231       C  0.73458119  0.54979983  0.84070084     0.12200
C3232       C  0.68037198  0.49538439  0.84097299    -0.12200
H3233       H  0.65182070  0.48840045  0.80058307     0.12500
C3234       C  0.71280980  0.57664645  0.76338774    -0.23000
H3235       H  0.73859562  0.58348097  0.80454814     0.08100
C3236       C  0.75719264  0.54584875  0.83574959     0.04500
C3237       C  0.77244977  0.54378351  0.85463551    -0.20200
C3238       C  0.76565788  0.54562249  0.87829180    -0.12500
C3239       C  0.74463682  0.55204230  0.88314804     0.13200
C3240       C  0.72953452  0.55434403  0.86418810    -0.23000
C3241       C  0.76402106  0.54191968  0.81066139    -0.06000
H3242       H  0.78849350  0.53879707  0.85102134     0.14700
C3243       C  0.73592274  0.55431938  0.90799269    -0.16200
H3244       H  0.71221551  0.55747094  0.86788741     0.09000
H3245       H  0.73460628  0.58265783  0.75839602     0.06900
H3246       H  0.71325039  0.59580713  0.76962797     0.08100
H3247       H  0.70007283  0.56934907  0.74706668     0.07100
H3248       H  0.67759255  0.50368418  0.85799438     0.02000
H3249       H  0.69738362  0.49069036  0.84297105     0.02500
H3250       H  0.66037524  0.47522938  0.83715832     0.06000
H3251       H  0.78195921  0.53845788  0.81004031     0.05000
H3252       H  0.76993974  0.56106091  0.79998186    -0.00800
H3253       H  0.74538890  0.52334097  0.80248903     0.00700
H3254       H  0.73878296  0.57547772  0.91041657     0.04300
H3255       H  0.74825241  0.55148962  0.92193198     0.06300
H3256       H  0.71328980  0.53798119  0.91071696     0.07100
C3257       C  0.70675042  0.45334355  0.66950731    -0.22500
C3258       C  0.72768232  0.45582576  0.68497114     0.09500
C3259       C  0.73383366  0.47204300  0.70591025     0.09900
C3260       C  0.71755873  0.48380499  0.71170821    -0.17400
C3261       C  0.69503256  0.47919235  0.69725877    -0.27800
C3262       C  0.69015094  0.46464853  0.67551158     0.18200
C3263       C  0.74007222  0.43814145  0.68095867     0.12200
C3264       C  0.75626857  0.47531182  0.72294398    -0.12200
H3265       H  0.72094510  0.49465875  0.72847567     0.12500
C3266       C  0.66681584  0.45968428  0.65877380    -0.23000
H3267       H  0.70221784  0.44109272  0.65339886     0.08100
C3268       C  0.72478525  0.40922388  0.68701498     0.04500
C3269       C  0.73883584  0.39442154  0.68777828    -0.20200
C3270       C  0.76791451  0.40776759  0.68284887    -0.12500
C3271       C  0.78265961  0.43625413  0.67483291     0.13200
C3272       C  0.76838414  0.45095751  0.67396153    -0.23000
C3273       C  0.69401410  0.39432901  0.69395025    -0.06000
H3274       H  0.72732865  0.37255513  0.69357832     0.14700
C3275       C  0.81362119  0.45282518  0.66851054    -0.16200
H3276       H  0.77987929  0.47311139  0.66906860     0.09000
H3277       H  0.65168035  0.43665276  0.65678325     0.06900
H3278       H  0.67596336  0.46887723  0.64110709     0.08100
H3279       H  0.65491452  0.46942647  0.66498520     0.07100
H3280       H  0.77714675  0.48620793  0.71394203     0.02000
H3281       H  0.75128892  0.45422239  0.72919998     0.02500
H3282       H  0.75779104  0.48795750  0.73874924     0.06000
H3283       H  0.68553485  0.37193210  0.69890783     0.05000
H3284       H  0.68137523  0.39459645  0.67880891    -0.00800
H3285       H  0.69126323  0.40504219  0.70941343     0.00700
H3286       H  0.81614134  0.46068809  0.64997241     0.04300
H3287       H  0.82422845  0.44080434  0.66969798     0.06300
H3288       H  0.82488987  0.47122499  0.68058014     0.07100
C3289       C  0.57932935  0.57189534  0.75041548    -0.22500
C3290       C  0.56314459  0.57557329  0.73330163     0.09500
C3291       C  0.56306051  0.56709560  0.70963369     0.09900
C3292       C  0.57773016  0.55354158  0.70394536    -0.17400
C3293       C  0.59287550  0.54874753  0.72129256    -0.27800
C3294       C  0.59416981  0.55850558  0.74466528     0.18200
C3295       C  0.54498584  0.58658559  0.74084159     0.12200
C3296       C  0.54709113  0.57193057  0.69050713    -0.12200
H3297       H  0.57663481  0.54581396  0.68606997     0.12500
C3298       C  0.61009278  0.55352200  0.76373905    -0.23000
H3299       H  0.57945759  0.57855872  0.76851637     0.08100
C3300       C  0.51644584  0.56812509  0.74716299     0.04500
C3301       C  0.49982386  0.57926783  0.75379970    -0.20200
C3302       C  0.51095676  0.60864192  0.75470177    -0.12500
C3303       C  0.53995278  0.62711473  0.74870086     0.13200
C3304       C  0.55642265  0.61577425  0.74181763    -0.23000
C3305       C  0.50359388  0.53657507  0.74720143    -0.06000
H3306       H  0.47790869  0.56472105  0.75845867     0.14700
C3307       C  0.55397759  0.65876407  0.74934525    -0.16200
H3308       H  0.57845616  0.62978198  0.73710318     0.09000
H3309       H  0.60122498  0.53050617  0.76593491     0.06900
H3310       H  0.60873261  0.56214134  0.78112883     0.08100
H3311       H  0.63271784  0.56396728  0.75869393     0.07100
H3312       H  0.55535798  0.59487724  0.68885933     0.02000
H3313       H  0.52428396  0.56073957  0.69499463     0.02500
H3314       H  0.54931859  0.56415713  0.67297382     0.06000
H3315       H  0.48111772  0.52511516  0.75288186     0.05000
H3316       H  0.51537737  0.53095053  0.75965860    -0.00800
H3317       H  0.50457138  0.52923068  0.72911927     0.00700
H3318       H  0.57651424  0.66963250  0.74389521     0.04300
H3319       H  0.55327486  0.66572579  0.76766364     0.06300
H3320       H  0.54315590  0.66552650  0.73694328     0.07100
C3321       C  0.41021419  0.17160740  0.80331481    -0.22500
C3322       C  0.43078031  0.18561843  0.82092585     0.09500
C3323       C  0.45884302  0.19283675  0.81669966     0.09900
C3324       C  0.46580172  0.18645100  0.79479377    -0.17400
C3325       C  0.44574912  0.17376414  0.77662827    -0.27800
C3326       C  0.41740876  0.16575742  0.78100762     0.18200
C3327       C  0.42416048  0.19625273  0.84244618     0.12200
C3328       C  0.48196298  0.20868097  0.83476194    -0.12200
H3329       H  0.48747599  0.19235838  0.79153605     0.12500
C3330       C  0.39515253  0.15268398  0.76198544    -0.23000
H3331       H  0.38881151  0.16643363  0.80669480     0.08100
C3332       C  0.42347083  0.22123743  0.84128753     0.04500
C3333       C  0.42728642  0.23649387  0.86212179    -0.20200
C3334       C  0.43240925  0.22766020  0.88386345    -0.12500
C3335       C  0.43006356  0.20112188  0.88542613     0.13200
C3336       C  0.42542220  0.18541533  0.86461666    -0.23000
C3337       C  0.42118364  0.23311558  0.81788131    -0.06000
H3338       H  0.42868021  0.25667349  0.86112055     0.14700
C3339       C  0.43524639  0.19062800  0.90837938    -0.16200
H3340       H  0.42579030  0.16613475  0.86527655     0.09000
H3341       H  0.40174064  0.16697154  0.74632968     0.06900
H3342       H  0.37449884  0.14888212  0.76829897     0.08100
H3343       H  0.39198963  0.13205670  0.75659061     0.07100
H3344       H  0.47736498  0.19574816  0.85107517     0.02000
H3345       H  0.48360731  0.22892021  0.83929224     0.02500
H3346       H  0.50287428  0.21368452  0.82797192     0.06000
H3347       H  0.42170193  0.25321523  0.82022720     0.05000
H3348       H  0.40094284  0.21780503  0.80914595    -0.00800
H3349       H  0.43904029  0.23737064  0.80610245     0.00700
H3350       H  0.41943536  0.18797252  0.92185307     0.04300
H3351       H  0.43352133  0.16993219  0.90614901     0.06300
H3352       H  0.45683246  0.20598293  0.91493073     0.07100
C3353       C  0.53255106  0.39610440  0.84822537    -0.22500
C3354       C  0.51160565  0.39731933  0.83553720     0.09500
C3355       C  0.48330278  0.38158462  0.84344117     0.09900
C3356       C  0.47654799  0.36417594  0.86365699    -0.17400
C3357       C  0.49754823  0.36210949  0.87569549    -0.27800
C3358       C  0.52602947  0.37907495  0.86831247     0.18200
C3359       C  0.52044166  0.41324645  0.81290600     0.12200
C3360       C  0.46048009  0.38327493  0.83063656    -0.12200
H3361       H  0.45484035  0.35162836  0.86966913     0.12500
C3362       C  0.54990751  0.37998644  0.88181241    -0.23000
H3363       H  0.55423745  0.40824529  0.84200065     0.08100
C3364       C  0.54024786  0.44263170  0.81269296     0.04500
C3365       C  0.55585576  0.45533595  0.79197502    -0.20200
C3366       C  0.55170864  0.43936881  0.77148714    -0.12500
C3367       C  0.53031671  0.41046714  0.77108335     0.13200
C3368       C  0.51478767  0.39773843  0.79185352    -0.23000
C3369       C  0.54558794  0.46033739  0.83456146    -0.06000
H3370       H  0.57232426  0.47753180  0.79208114     0.14700
C3371       C  0.52558806  0.39248503  0.74950300    -0.16200
H3372       H  0.49998932  0.37512906  0.79225873     0.09000
H3373       H  0.57088180  0.39609789  0.87451544     0.06900
H3374       H  0.54829261  0.35928860  0.88071027     0.08100
H3375       H  0.54919532  0.38546692  0.90064354     0.07100
H3376       H  0.45866787  0.37581140  0.81208436     0.02000
H3377       H  0.46571147  0.40548449  0.83044280     0.02500
H3378       H  0.43961803  0.37005440  0.83942165     0.06000
H3379       H  0.56146033  0.48297144  0.83115492     0.05000
H3380       H  0.55361939  0.45314232  0.84925256    -0.00800
H3381       H  0.52560479  0.45860159  0.84024298     0.00700
H3382       H  0.54519229  0.39270516  0.74518725     0.04300
H3383       H  0.51959742  0.40076303  0.73411984     0.06300
H3384       H  0.50845109  0.37018398  0.75244190     0.07100
C3385       C  0.50692378  0.20144640  0.96596225    -0.22500
C3386       C  0.53631963  0.21784110  0.96290889     0.09500
C3387       C  0.55003698  0.24752901  0.96207781     0.09900
C3388       C  0.53383841  0.26005465  0.96216734    -0.17400
C3389       C  0.50426902  0.24359443  0.96256410    -0.27800
C3390       C  0.49061051  0.21405698  0.96598933     0.18200
C3391       C  0.55226854  0.20408449  0.95714337     0.12200
C3392       C  0.58165936  0.26592692  0.95935651    -0.12200
H3393       H  0.54419553  0.28271725  0.95979407     0.12500
C3394       C  0.45905196  0.19514226  0.96842511    -0.23000
H3395       H  0.49654998  0.17866428  0.96694644     0.08100
C3396       C  0.56686920  0.19853438  0.97463200     0.04500
C3397       C  0.58668663  0.19149868  0.96755447    -0.20200
C3398       C  0.59217222  0.19014927  0.94337970    -0.12500
C3399       C  0.57577950  0.19344496  0.92593996     0.13200
C3400       C  0.55600427  0.20038769  0.93309061    -0.23000
C3401       C  0.56198993  0.20077715  0.00062209    -0.06000
H3402       H  0.59887131  0.18837809  0.98087867     0.14700
C3403       C  0.57887909  0.18947998  0.89982301    -0.16200
H3404       H  0.54435429  0.20434379  0.91979627     0.09000
H3405       H  0.45399216  0.18395854  0.98577278     0.06900
H3406       H  0.45076200  0.17918293  0.95404027     0.08100
H3407       H  0.44791744  0.20679916  0.96766393     0.07100
H3408       H  0.58837943  0.26096194  0.94242728     0.02000
H3409       H  0.59220866  0.26218912  0.97439463     0.02500
H3410       H  0.58889638  0.28872075  0.95913414     0.06000
H3411       H  0.57503101  0.19565396  0.01200700     0.05000
H3412       H  0.53941407  0.18577853  0.00501021    -0.00800
H3413       H  0.56743791  0.22255792  0.00484042     0.00700
H3414       H  0.56296359  0.19086747  0.88896442     0.04300
H3415       H  0.57590241  0.16834180  0.89685289     0.06300
H3416       H  0.60005873  0.20604202  0.89332759     0.07100
C3417       C  0.60447390  0.40277082  0.97020571    -0.22500
C3418       C  0.62334785  0.40686034  0.95187637     0.09500
C3419       C  0.61323766  0.39053747  0.93103138     0.09900
C3420       C  0.58437533  0.37042387  0.92898221    -0.17400
C3421       C  0.56516032  0.36681743  0.94691186    -0.27800
C3422       C  0.57539072  0.38291509  0.96799699     0.18200
C3423       C  0.65366462  0.42858931  0.95431961     0.12200
C3424       C  0.63288725  0.39460499  0.91082385    -0.12200
H3425       H  0.57664971  0.35780306  0.91299986     0.12500
C3426       C  0.55662424  0.37907814  0.98879783    -0.23000
H3427       H  0.61248001  0.41518167  0.98628888     0.08100
C3428       C  0.66466921  0.45611584  0.94529904     0.04500
C3429       C  0.69402405  0.47445092  0.94371041    -0.20200
C3430       C  0.71241571  0.46562569  0.95072276    -0.12500
C3431       C  0.70141143  0.43897230  0.96172891     0.13200
C3432       C  0.67204849  0.42062177  0.96320952    -0.23000
C3433       C  0.64540119  0.46558719  0.93633302    -0.06000
H3434       H  0.70256301  0.49494652  0.93540538     0.14700
C3435       C  0.72007568  0.42929412  0.97187467    -0.16200
H3436       H  0.66344509  0.39959100  0.97050983     0.09000
H3437       H  0.55741805  0.39913571  0.99223206     0.06900
H3438       H  0.56424781  0.37337855  0.00481754     0.08100
H3439       H  0.53434163  0.36214642  0.98607878     0.07100
H3440       H  0.64921658  0.39029707  0.91705313     0.02000
H3441       H  0.64339957  0.41663357  0.90410096     0.02500
H3442       H  0.62143395  0.38022946  0.89575888     0.06000
H3443       H  0.65747037  0.48771682  0.92975958     0.05000
H3444       H  0.63132928  0.46428113  0.95094195    -0.00800
H3445       H  0.63229214  0.45186433  0.92149025     0.00700
H3446       H  0.71448376  0.42332376  0.99081373     0.04300
H3447       H  0.74281913  0.44593866  0.97131206     0.06300
H3448       H  0.71688656  0.41063337  0.96190963     0.07100
C3449       C  0.35330527  0.29551037  0.91193214    -0.22500
C3450       C  0.33072144  0.26961496  0.92016468     0.09500
C3451       C  0.33581712  0.25368613  0.93668843     0.09900
C3452       C  0.36338902  0.26400844  0.94450528    -0.17400
C3453       C  0.38639919  0.28896499  0.93519704    -0.27800
C3454       C  0.38123781  0.30538107  0.91900758     0.18200
C3455       C  0.30280975  0.25710951  0.90859468     0.12200
C3456       C  0.31267780  0.22460262  0.94453349    -0.12200
H3457       H  0.36729474  0.25137641  0.95679922     0.12500
C3458       C  0.40424745  0.33210688  0.90743265    -0.23000
H3459       H  0.34926908  0.30732471  0.89881644     0.08100
C3460       C  0.27929281  0.25485273  0.92028615     0.04500
C3461       C  0.25223928  0.23719214  0.91071766    -0.20200
C3462       C  0.24828981  0.22201912  0.88958495    -0.12500
C3463       C  0.27237208  0.22689572  0.87664719     0.13200
C3464       C  0.29929298  0.24425492  0.88645991    -0.23000
C3465       C  0.28277800  0.27101020  0.94279044    -0.06000
H3466       H  0.23403978  0.23435971  0.92035776     0.14700
C3467       C  0.27014645  0.21407997  0.85254522    -0.16200
H3468       H  0.31767078  0.24676066  0.87735393     0.09000
H3469       H  0.40072238  0.34962169  0.91123498     0.06900
H3470       H  0.40361997  0.32906228  0.88789661     0.08100
H3471       H  0.42565207  0.33871031  0.91355217     0.07100
H3472       H  0.30353696  0.21065990  0.92881576     0.02000
H3473       H  0.29571915  0.22560990  0.95392241     0.02500
H3474       H  0.32070839  0.21471259  0.95679528     0.06000
H3475       H  0.26222005  0.26715589  0.94942554     0.05000
H3476       H  0.29679640  0.29397341  0.93929005    -0.00800
H3477       H  0.29230705  0.26484212  0.95699717     0.00700
H3478       H  0.29123983  0.22251743  0.84426375     0.04300
H3479       H  0.25752333  0.21906655  0.84048485     0.06300
H3480       H  0.26023305  0.19088229  0.85408892     0.07100
C3481       C  0.84964489  0.52934949  0.04452772    -0.22500
C3482       C  0.82467597  0.51356811  0.05753085     0.09500
C3483       C  0.79835672  0.50149635  0.04602659     0.09900
C3484       C  0.79761788  0.50577492  0.02155497    -0.17400
C3485       C  0.82263652  0.52162035  0.00831933    -0.27800
C3486       C  0.84907919  0.53334149  0.01999658     0.18200
C3487       C  0.82665354  0.51065588  0.08338981     0.12200
C3488       C  0.77115797  0.48400227  0.05959877    -0.12200
H3489       H  0.77735496  0.49628707  0.01264420     0.12500
C3490       C  0.87684220  0.55047830  0.00705221    -0.23000
H3491       H  0.86970943  0.53852587  0.05370745     0.08100
C3492       C  0.83053139  0.48957560  0.09307684     0.04500
C3493       C  0.83173132  0.48743623  0.11782750    -0.20200
C3494       C  0.82938653  0.50610325  0.13315371    -0.12500
C3495       C  0.82613342  0.52777611  0.12309705     0.13200
C3496       C  0.82478091  0.52961105  0.09834521    -0.23000
C3497       C  0.83320311  0.46927758  0.07724914    -0.06000
H3498       H  0.83447423  0.47101139  0.12519165     0.14700
C3499       C  0.82344322  0.54883618  0.13793034    -0.16200
H3500       H  0.82204276  0.54584419  0.09050231     0.09000
H3501       H  0.87957039  0.53696668  0.99421101     0.06900
H3502       H  0.89508603  0.55937742  0.01940889     0.08100
H3503       H  0.87758538  0.56838101  0.99761750     0.07100
H3504       H  0.76942051  0.49703845  0.07360806     0.02000
H3505       H  0.77075824  0.46572071  0.06802276     0.02500
H3506       H  0.75243699  0.47575744  0.04783259     0.06000
H3507       H  0.83585515  0.45384996  0.08768846     0.05000
H3508       H  0.85188081  0.48112246  0.06545766    -0.00800
H3509       H  0.81394812  0.45735004  0.06617810     0.00700
H3510       H  0.82037046  0.56354176  0.12680810     0.04300
H3511       H  0.84299218  0.56189540  0.14841459     0.06300
H3512       H  0.80487626  0.53762503  0.14991263     0.07100
C3513       C  0.95523168  0.57117274  0.20885266    -0.22500
C3514       C  0.96132152  0.57910880  0.23269569     0.09500
C3515       C  0.93956238  0.57462755  0.24839674     0.09900
C3516       C  0.91174172  0.56092098  0.24006728    -0.17400
C3517       C  0.90527906  0.55068320  0.21673819    -0.27800
C3518       C  0.92734164  0.55653752  0.20069095     0.18200
C3519       C  0.98992131  0.58872192  0.24141956     0.12200
C3520       C  0.94546023  0.58277760  0.27419934    -0.12200
H3521       H  0.89476762  0.55641272  0.25227473     0.12500
C3522       C  0.92173702  0.54725638  0.17508307    -0.23000
H3523       H  0.97225306  0.57498967  0.19697606     0.08100
C3524       C  0.99848405  0.56920341  0.24503175     0.04500
C3525       C  0.02539222  0.57875375  0.25399187    -0.20200
C3526       C  0.04391070  0.60729405  0.25959806    -0.12500
C3527       C  0.03535316  0.62695975  0.25592546     0.13200
C3528       C  0.00838074  0.61733731  0.24664443    -0.23000
C3529       C  0.97914249  0.53818479  0.23980597    -0.06000
H3530       H  0.03211031  0.56382527  0.25645163     0.14700
C3531       C  0.05325403  0.65779719  0.26230809    -0.16200
H3532       H  0.00148723  0.63207280  0.24389803     0.09000
H3533       H  0.91013547  0.52389624  0.17392021     0.06900
H3534       H  0.94167551  0.55553821  0.16486736     0.08100
H3535       H  0.90920438  0.55517848  0.16652090     0.07100
H3536       H  0.96032396  0.60590830  0.27573518     0.02000
H3537       H  0.95492912  0.57160153  0.28268797     0.02500
H3538       H  0.92588254  0.57717489  0.28408569     0.06000
H3539       H  0.98912805  0.52589918  0.24424149     0.05000
H3540       H  0.97374616  0.53507791  0.22063798    -0.00800
H3541       H  0.95947747  0.52955309  0.25045801     0.00700
H3542       H  0.05875579  0.67081341  0.24592033     0.04300
H3543       H  0.07295549  0.66339397  0.27173179     0.06300
H3544       H  0.04111669  0.66343859  0.27432308     0.07100
C3545       C  0.42295034  0.14082394  0.54813665    -0.22500
C3546       C  0.44712971  0.14343448  0.55846284     0.09500
C3547       C  0.46924775  0.14660966  0.54391600     0.09900
C3548       C  0.46690896  0.14758196  0.51923293    -0.17400
C3549       C  0.44311714  0.14582317  0.50873216    -0.27800
C3550       C  0.42038984  0.14149560  0.52337090     0.18200
C3551       C  0.44916682  0.14302299  0.58458826     0.12200
C3552       C  0.49574473  0.14996669  0.55448870    -0.12200
H3553       H  0.48427700  0.15077830  0.50810439     0.12500
C3554       C  0.39281343  0.13642759  0.51368856    -0.23000
H3555       H  0.40585561  0.13794376  0.55948806     0.08100
C3556       C  0.45757308  0.16744637  0.59815973     0.04500
C3557       C  0.46081819  0.16652824  0.62274637    -0.20200
C3558       C  0.45659907  0.14198424  0.63390552    -0.12500
C3559       C  0.44825195  0.11753225  0.62026331     0.13200
C3560       C  0.44427559  0.11827576  0.59572730    -0.23000
C3561       C  0.46384811  0.19462017  0.58660319    -0.06000
H3562       H  0.46743289  0.18531924  0.63325272     0.14700
C3563       C  0.44308971  0.09057328  0.63146631    -0.16200
H3564       H  0.43793035  0.09969221  0.58504193     0.09000
H3565       H  0.39032713  0.15436448  0.51850010     0.06900
H3566       H  0.37505624  0.11677075  0.52160009     0.08100
H3567       H  0.39089714  0.13350389  0.49419214     0.07100
H3568       H  0.49048620  0.13097392  0.56510918     0.02000
H3569       H  0.50600914  0.16883925  0.56614447     0.02500
H3570       H  0.51116276  0.15271717  0.54056096     0.06000
H3571       H  0.47073177  0.21185106  0.59978708     0.05000
H3572       H  0.44464174  0.19145924  0.57760735    -0.00800
H3573       H  0.48101017  0.20143889  0.57329873     0.00700
H3574       H  0.43510807  0.07316463  0.61833815     0.04300
H3575       H  0.42715807  0.08386822  0.64588295     0.06300
H3576       H  0.46308543  0.09382786  0.63885802     0.07100
C3577       C  0.26208566  0.04003905  0.40977851    -0.22500
C3578       C  0.28406139  0.06499300  0.39969859     0.09500
C3579       C  0.27821053  0.07878221  0.38162674     0.09900
C3580       C  0.25015424  0.06802332  0.37483085    -0.17400
C3581       C  0.22785097  0.04355024  0.38541244    -0.27800
C3582       C  0.23395062  0.02899767  0.40277105     0.18200
C3583       C  0.31266618  0.07815393  0.40989912     0.12200
C3584       C  0.30157537  0.10516740  0.36989161    -0.12200
H3585       H  0.24553248  0.07902563  0.36136017     0.12500
C3586       C  0.21090529  0.00285425  0.41493896    -0.23000
H3587       H  0.26691023  0.02976367  0.42374119     0.08100
C3588       C  0.32124343  0.09864703  0.42787465     0.04500
C3589       C  0.34943386  0.11345306  0.43510168    -0.20200
C3590       C  0.36929047  0.10833216  0.42475002    -0.12500
C3591       C  0.36046718  0.08690080  0.40747799     0.13200
C3592       C  0.33205441  0.07192353  0.40025722    -0.23000
C3593       C  0.30082463  0.10548429  0.43895132    -0.06000
H3594       H  0.35624781  0.12979398  0.44844198     0.14700
C3595       C  0.38114673  0.08106299  0.39557299    -0.16200
H3596       H  0.32517699  0.05618133  0.38641985     0.09000
H3597       H  0.21943086  0.99503926  0.42876840     0.06900
H3598       H  0.19943597  0.98569887  0.40177963     0.08100
H3599       H  0.19599729  0.00765578  0.42367315     0.07100
H3600       H  0.31679667  0.10060434  0.36141462     0.02000
H3601       H  0.31284446  0.12208612  0.38328127     0.02500
H3602       H  0.29334123  0.11315340  0.35595612     0.06000
H3603       H  0.31113465  0.12213486  0.45272285     0.05000
H3604       H  0.28320411  0.08627137  0.44748269    -0.00800
H3605       H  0.29215874  0.11315318  0.42515141     0.00700
H3606       H  0.37081661  0.06437920  0.38184132     0.04300
H3607       H  0.39073387  0.07387248  0.40893483     0.06300
H3608       H  0.39796611  0.10060499  0.38679752     0.07100
C3609       C  0.48918012  0.35297361  0.09656128    -0.22500
C3610       C  0.46187328  0.33454654  0.08817762     0.09500
C3611       C  0.43853269  0.32496194  0.10344748     0.09900
C3612       C  0.44312613  0.33433694  0.12704869    -0.17400
C3613       C  0.47059424  0.35287139  0.13567919    -0.27800
C3614       C  0.49400248  0.36220015  0.12013058     0.18200
C3615       C  0.45865175  0.32598479  0.06310728     0.12200
C3616       C  0.40896298  0.30478171  0.09480785    -0.12200
H3617       H  0.42515425  0.32688933  0.13887473     0.12500
C3618       C  0.52421395  0.38090306  0.12818643    -0.23000
H3619       H  0.50689953  0.35999293  0.08449029     0.08100
C3620       C  0.45925375  0.34383438  0.04505481     0.04500
C3621       C  0.45958825  0.33665303  0.02134182    -0.20200
C3622       C  0.45969276  0.31222392  0.01528808    -0.12500
C3623       C  0.45890598  0.29417278  0.03348135     0.13200
C3624       C  0.45804207  0.30120363  0.05724743    -0.23000
C3625       C  0.45995692  0.37064691  0.05084590    -0.06000
H3626       H  0.46004389  0.35035622  0.00739878     0.14700
C3627       C  0.46067266  0.26844687  0.02884291    -0.16200
H3628       H  0.45811927  0.28792494  0.07134566     0.09000
H3629       H  0.53949522  0.38461131  0.11380748     0.06900
H3630       H  0.52860543  0.37083157  0.14324828     0.08100
H3631       H  0.52815715  0.40184568  0.13361566     0.07100
H3632       H  0.40713719  0.28488831  0.08877742     0.02000
H3633       H  0.40400774  0.31438306  0.07974189     0.02500
H3634       H  0.39304771  0.29946451  0.10902060     0.06000
H3635       H  0.46005782  0.38198848  0.03454310     0.05000
H3636       H  0.47928708  0.38501926  0.06114251    -0.00800
H3637       H  0.44106892  0.36560593  0.06152815     0.00700
H3638       H  0.47897203  0.27039854  0.03860340     0.04300
H3639       H  0.46368776  0.26552385  0.00992152     0.06300
H3640       H  0.44108291  0.24930104  0.03525761     0.07100
C3641       C  0.63082769  0.45843077  0.17550300    -0.22500
C3642       C  0.64598925  0.44551286  0.18105223     0.09500
C3643       C  0.63154140  0.41724384  0.18892099     0.09900
C3644       C  0.60217213  0.40257614  0.19127622    -0.17400
C3645       C  0.58676055  0.41577592  0.18720138    -0.27800
C3646       C  0.60137687  0.44408303  0.17864310     0.18200
C3647       C  0.67704805  0.46293422  0.18272543     0.12200
C3648       C  0.64724884  0.40308430  0.19647228    -0.12200
H3649       H  0.59146504  0.38102470  0.19781104     0.12500
C3650       C  0.58668056  0.45990015  0.17358945    -0.23000
H3651       H  0.64234783  0.48035918  0.16990424     0.08100
C3652       C  0.69487023  0.46134597  0.16577221     0.04500
C3653       C  0.72338948  0.47235775  0.17150845    -0.20200
C3654       C  0.73402254  0.48482653  0.19374027    -0.12500
C3655       C  0.71675184  0.48890998  0.20955707     0.13200
C3656       C  0.68842909  0.47790151  0.20382983    -0.23000
C3657       C  0.68355864  0.44741263  0.14208051    -0.06000
H3658       H  0.73684124  0.46950363  0.15935420     0.14700
C3659       C  0.72734917  0.50395643  0.23295383    -0.16200
H3660       H  0.67468988  0.47945822  0.21660525     0.09000
H3661       H  0.60144711  0.48131093  0.16627535     0.06900
H3662       H  0.57768305  0.46268733  0.19022433     0.08100
H3663       H  0.56969880  0.44821187  0.16030874     0.07100
H3664       H  0.66201399  0.41516662  0.21114812     0.02000
H3665       H  0.65941828  0.40201921  0.18134068     0.02500
H3666       H  0.63267450  0.38118744  0.20290974     0.06000
H3667       H  0.70036080  0.44808015  0.13088093     0.05000
H3668       H  0.67477357  0.45856045  0.13244887    -0.00800
H3669       H  0.66658783  0.42499310  0.14451194     0.00700
H3670       H  0.72393901  0.52191179  0.23373429     0.04300
H3671       H  0.75017832  0.51263042  0.23548923     0.06300
H3672       H  0.71566175  0.48916314  0.24779162     0.07100
C3673       C  0.42860275  0.27491135  0.30707327    -0.22500
C3674       C  0.44980071  0.27344608  0.31927973     0.09500
C3675       C  0.47798730  0.28948407  0.31125861     0.09900
C3676       C  0.48446990  0.30686922  0.29130638    -0.17400
C3677       C  0.46336908  0.30810449  0.27864491    -0.27800
C3678       C  0.43502202  0.29193176  0.28663077     0.18200
C3679       C  0.44244603  0.25390156  0.33964885     0.12200
C3680       C  0.50118813  0.28769165  0.32341473    -0.12200
H3681       H  0.50611082  0.31882419  0.28503665     0.12500
C3682       C  0.41165458  0.29286839  0.27398235    -0.23000
H3683       H  0.40700307  0.26236306  0.31332657     0.08100
C3684       C  0.44517796  0.26334783  0.36329512     0.04500
C3685       C  0.44445583  0.24608664  0.38190436    -0.20200
C3686       C  0.44167730  0.21992731  0.37715905    -0.12500
C3687       C  0.43657494  0.20955855  0.35361343     0.13200
C3688       C  0.43709252  0.22675294  0.33512698    -0.23000
C3689       C  0.45037238  0.29221005  0.36875430    -0.06000
H3690       H  0.44829192  0.25396628  0.39987374     0.14700
C3691       C  0.43106200  0.18074244  0.34728124    -0.16200
H3692       H  0.43478033  0.21953211  0.31695236     0.09000
H3693       H  0.39114865  0.28015481  0.28340395     0.06900
H3694       H  0.40895942  0.28416531  0.25579527     0.08100
H3695       H  0.41676155  0.31501133  0.27293344     0.07100
H3696       H  0.49639461  0.26564185  0.32282108     0.02000
H3697       H  0.50300050  0.29438091  0.34221827     0.02500
H3698       H  0.52198895  0.30145545  0.31470506     0.06000
H3699       H  0.45219348  0.29636470  0.38815216     0.05000
H3700       H  0.43257366  0.29387517  0.36189318    -0.00800
H3701       H  0.47028712  0.30871404  0.36019043     0.00700
H3702       H  0.41106886  0.16900367  0.33709211     0.04300
H3703       H  0.42867596  0.16770337  0.36306834     0.06300
H3704       H  0.44862820  0.18302965  0.33611648     0.07100
C3705       C  0.37445661  0.42119515  0.26763938    -0.22500
C3706       C  0.37206932  0.41304295  0.24383856     0.09500
C3707       C  0.35627017  0.41882357  0.22783993     0.09900
C3708       C  0.34513639  0.43490896  0.23561642    -0.17400
C3709       C  0.34967765  0.44528040  0.25892195    -0.27800
C3710       C  0.36311814  0.43702829  0.27552821     0.18200
C3711       C  0.39002203  0.40269350  0.23541155     0.12200
C3712       C  0.35244194  0.40924557  0.20237486    -0.12200
H3713       H  0.33448358  0.44096406  0.22303207     0.12500
C3714       C  0.36593736  0.44448654  0.30154138    -0.23000
H3715       H  0.38629039  0.41619147  0.27987906     0.08100
C3716       C  0.41860548  0.42203383  0.22998239     0.04500
C3717       C  0.43573169  0.41179449  0.22324443    -0.20200
C3718       C  0.42489590  0.38267161  0.22142031    -0.12500
C3719       C  0.39588003  0.36329436  0.22603225     0.13200
C3720       C  0.37878287  0.37365057  0.23319528    -0.23000
C3721       C  0.43097377  0.45350374  0.23114902    -0.06000
H3722       H  0.45789883  0.42674867  0.21957861     0.14700
C3723       C  0.38261304  0.33196384  0.22269114    -0.16200
H3724       H  0.35659059  0.35911902  0.23709573     0.09000
H3725       H  0.38858304  0.45872556  0.30605188     0.06900
H3726       H  0.35722067  0.42490783  0.31234116     0.08100
H3727       H  0.35417978  0.45472459  0.30674111     0.07100
H3728       H  0.34140554  0.38585887  0.20178006     0.02000
H3729       H  0.37333277  0.41847362  0.19354761     0.02500
H3730       H  0.33967972  0.41580950  0.19221511     0.06000
H3731       H  0.45360468  0.46558373  0.22590172     0.05000
H3732       H  0.42936896  0.45973799  0.24952154    -0.00800
H3733       H  0.41932778  0.45953122  0.21890673     0.00700
H3734       H  0.39160020  0.32364007  0.23556071     0.04300
H3735       H  0.38647199  0.32761712  0.20427740     0.06300
H3736       H  0.35940935  0.32034364  0.22560917     0.07100
C3737       C  0.68556979  0.63397312  0.43730157    -0.22500
C3738       C  0.70475977  0.64721544  0.41858349     0.09500
C3739       C  0.71333982  0.63173174  0.40492927     0.09900
C3740       C  0.70243422  0.60320295  0.41030662    -0.17400
C3741       C  0.68339696  0.58983939  0.42921532    -0.27800
C3742       C  0.67480274  0.60541516  0.44285399     0.18200
C3743       C  0.71767803  0.67788699  0.41462911     0.12200
C3744       C  0.73469784  0.64556621  0.38516480    -0.12200
H3745       H  0.70918220  0.59137009  0.39995200     0.12500
C3746       C  0.65559775  0.59255066  0.46404392    -0.23000
H3747       H  0.67957562  0.64623530  0.44792965     0.08100
C3748       C  0.70790995  0.68852419  0.39677278     0.04500
C3749       C  0.72449537  0.71712926  0.39029367    -0.20200
C3750       C  0.75031498  0.73517539  0.40160754    -0.12500
C3751       C  0.75802505  0.72517787  0.42165946     0.13200
C3752       C  0.74188541  0.69647537  0.42756778    -0.23000
C3753       C  0.68037114  0.66953860  0.38427783    -0.06000
H3754       H  0.71808370  0.72497992  0.37548064     0.14700
C3755       C  0.78292185  0.74407052  0.43729672    -0.16200
H3756       H  0.74868285  0.68836879  0.44192324     0.09000
H3757       H  0.65246225  0.60821904  0.47349035     0.06900
H3758       H  0.66490747  0.58439486  0.47679758     0.08100
H3759       H  0.63457121  0.57502308  0.45823817     0.07100
H3760       H  0.75479550  0.66330371  0.39237459     0.02000
H3761       H  0.72658049  0.65383380  0.37140220     0.02500
H3762       H  0.73932584  0.63050300  0.37648517     0.06000
H3763       H  0.67578527  0.68127281  0.37085576     0.05000
H3764       H  0.66291501  0.66028934  0.39748573    -0.00800
H3765       H  0.68099714  0.65223852  0.37510378     0.00700
H3766       H  0.77564452  0.74206596  0.45598633     0.04300
H3767       H  0.79324571  0.76664938  0.43246404     0.06300
H3768       H  0.79877466  0.73769814  0.43630999     0.07100
C3769       C  0.63998072  0.48886854  0.55119422    -0.22500
C3770       C  0.64467652  0.51310759  0.56298184     0.09500
C3771       C  0.65492979  0.53855142  0.55015808     0.09900
C3772       C  0.66032292  0.53912866  0.52569011    -0.17400
C3773       C  0.65532982  0.51473674  0.51391444    -0.27800
C3774       C  0.64499873  0.48929537  0.52677969     0.18200
C3775       C  0.63977165  0.51151510  0.58895501     0.12200
C3776       C  0.65934419  0.56475611  0.56216300    -0.12200
H3777       H  0.66763747  0.55838099  0.51559523     0.12500
C3778       C  0.63913456  0.46222759  0.51533515    -0.23000
H3779       H  0.63237573  0.46946862  0.56114598     0.08100
C3780       C  0.61237070  0.49746067  0.59878085     0.04500
C3781       C  0.60907697  0.49604572  0.62356728    -0.20200
C3782       C  0.63254166  0.50835075  0.63891060    -0.12500
C3783       C  0.66018131  0.52248948  0.62875430     0.13200
C3784       C  0.66321856  0.52368237  0.60396746    -0.23000
C3785       C  0.58661117  0.48418914  0.58311818    -0.06000
H3786       H  0.58791464  0.48509175  0.63093871     0.14700
C3787       C  0.68684653  0.53647398  0.64344014    -0.16200
H3788       H  0.68415422  0.53413402  0.59610290     0.09000
H3789       H  0.61633823  0.44595561  0.51715414     0.06900
H3790       H  0.65164835  0.45458924  0.52437533     0.08100
H3791       H  0.64472176  0.46462960  0.49620769     0.07100
H3792       H  0.67558561  0.57154337  0.57624399     0.02000
H3793       H  0.63918816  0.56033757  0.57025874     0.02500
H3794       H  0.66653942  0.58251837  0.54940601     0.06000
H3795       H  0.56679162  0.47464329  0.59368280     0.05000
H3796       H  0.58594841  0.46725308  0.57221113    -0.00800
H3797       H  0.58727625  0.50047554  0.57121433     0.00700
H3798       H  0.70615312  0.54636681  0.63218793     0.04300
H3799       H  0.68766168  0.52068911  0.65493062     0.06300
H3800       H  0.68776523  0.55346828  0.65445652     0.07100
C3801       C  0.76680466  0.55018505  0.35596936    -0.22500
C3802       C  0.75762147  0.53058534  0.33742115     0.09500
C3803       C  0.73010624  0.50655111  0.33786190     0.09900
C3804       C  0.71244148  0.50235241  0.35708869    -0.17400
C3805       C  0.72168928  0.52121323  0.37633717    -0.27800
C3806       C  0.74916383  0.54584108  0.37553913     0.18200
C3807       C  0.77704354  0.53434023  0.31789867     0.12200
C3808       C  0.71960263  0.48482168  0.31830951    -0.12200
H3809       H  0.69152562  0.48346459  0.35740438     0.12500
C3810       C  0.76004259  0.56773261  0.39491527    -0.23000
H3811       H  0.78798654  0.56864643  0.35528097     0.08100
C3812       C  0.77609213  0.54595422  0.29591849     0.04500
C3813       C  0.78824771  0.54147087  0.27586414    -0.20200
C3814       C  0.80064082  0.52503089  0.27738917    -0.12500
C3815       C  0.80517956  0.51716771  0.30013497     0.13200
C3816       C  0.79286483  0.52150135  0.32009604    -0.23000
C3817       C  0.76081352  0.56157383  0.29345005    -0.06000
H3818       H  0.78594605  0.54883823  0.25870490     0.14700
C3819       C  0.82259091  0.50402298  0.30409144    -0.16200
H3820       H  0.79426598  0.51339324  0.33723824     0.09000
H3821       H  0.78111479  0.58632038  0.39043574     0.06900
H3822       H  0.76233035  0.55868071  0.41173493     0.08100
H3823       H  0.74528279  0.57528916  0.39755008     0.07100
H3824       H  0.73314822  0.47565928  0.31716956     0.02000
H3825       H  0.72016748  0.49476479  0.30103784     0.02500
H3826       H  0.69753863  0.46725872  0.32150062     0.06000
H3827       H  0.76203761  0.56929987  0.27501744     0.05000
H3828       H  0.77044673  0.58006244  0.30553615    -0.00800
H3829       H  0.73818611  0.54747486  0.29815234     0.00700
H3830       H  0.83959454  0.51690151  0.31705929     0.04300
H3831       H  0.83303276  0.50298016  0.28768124     0.06300
H3832       H  0.80890885  0.48254193  0.31157652     0.07100
C3833       C  0.57966860  0.49557029  0.34252066    -0.22500
C3834       C  0.56890912  0.46971130  0.33081814     0.09500
C3835       C  0.57017223  0.44761921  0.34185506     0.09900
C3836       C  0.58366877  0.45236894  0.36375593    -0.17400
C3837       C  0.59603470  0.47869289  0.37515340    -0.27800
C3838       C  0.59296246  0.50028374  0.36481142     0.18200
C3839       C  0.55875306  0.46607053  0.30607654     0.12200
C3840       C  0.55796050  0.41913487  0.33013077    -0.12200
H3841       H  0.58516531  0.43542329  0.37172049     0.12500
C3842       C  0.60421200  0.52848401  0.37664153    -0.23000
H3843       H  0.57830535  0.51226935  0.33391097     0.08100
C3844       C  0.52962056  0.45187090  0.30098958     0.04500
C3845       C  0.51992698  0.43846974  0.27891435    -0.20200
C3846       C  0.53879468  0.43821620  0.26249280    -0.12500
C3847       C  0.56820290  0.45505543  0.26662690     0.13200
C3848       C  0.57782515  0.46935066  0.28823052    -0.23000
C3849       C  0.50874002  0.44891509  0.31957487    -0.06000
H3850       H  0.49743661  0.42580374  0.27551390     0.14700
C3851       C  0.58990471  0.45709392  0.24928420    -0.16200
H3852       H  0.60024579  0.48047615  0.29220039     0.09000
H3853       H  0.60011065  0.54271986  0.36586930     0.06900
H3854       H  0.62739899  0.53909200  0.37912498     0.08100
H3855       H  0.59370455  0.52547016  0.39412434     0.07100
H3856       H  0.56866756  0.42140815  0.31288895     0.02000
H3857       H  0.53501685  0.40968772  0.32701639     0.02500
H3858       H  0.56062085  0.40419850  0.34129285     0.06000
H3859       H  0.48674513  0.43701419  0.31276783     0.05000
H3860       H  0.51368642  0.47018156  0.32512805    -0.00800
H3861       H  0.50988549  0.43747945  0.33530704     0.00700
H3862       H  0.60501176  0.47959376  0.24475871     0.04300
H3863       H  0.58048876  0.44581050  0.23244383     0.06300
H3864       H  0.60171269  0.44813686  0.25748828     0.07100
C3865       C  0.54084574  0.36878043  0.45114861    -0.22500
C3866       C  0.54964476  0.35520815  0.46683448     0.09500
C3867       C  0.57512022  0.37134002  0.47951921     0.09900
C3868       C  0.59251275  0.40021011  0.47453260    -0.17400
C3869       C  0.58464224  0.41338760  0.45763684    -0.27800
C3870       C  0.55800440  0.39785426  0.44655274     0.18200
C3871       C  0.53506889  0.32401934  0.46599622     0.12200
C3872       C  0.58433584  0.35796684  0.49782152    -0.12200
H3873       H  0.61302553  0.41222707  0.48290048     0.12500
C3874       C  0.54868075  0.41138018  0.42851121    -0.23000
H3875       H  0.52145562  0.35625993  0.44123220     0.08100
C3876       C  0.50715252  0.30593774  0.47413725     0.04500
C3877       C  0.49368388  0.27672176  0.46990313    -0.20200
C3878       C  0.50754998  0.26549794  0.45745859    -0.12500
C3879       C  0.53628233  0.28359380  0.45094075     0.13200
C3880       C  0.54941097  0.31255367  0.45502455    -0.23000
C3881       C  0.49162031  0.31753512  0.48695511    -0.06000
H3882       H  0.47179210  0.26287481  0.47514480     0.14700
C3883       C  0.55345514  0.27281288  0.43952473    -0.16200
H3884       H  0.57086991  0.32660291  0.44883759     0.09000
H3885       H  0.52755197  0.39600985  0.42112341     0.06900
H3886       H  0.56398063  0.42006563  0.41355912     0.08100
H3887       H  0.54744793  0.42871734  0.43698537     0.07100
H3888       H  0.58805244  0.34214777  0.48947725     0.02000
H3889       H  0.56771308  0.34744594  0.51165420     0.02500
H3890       H  0.60424093  0.37389897  0.50668253     0.06000
H3891       H  0.47035554  0.30043516  0.49290125     0.05000
H3892       H  0.48886387  0.33184588  0.47506041    -0.00800
H3893       H  0.50381502  0.32945919  0.50286001     0.00700
H3894       H  0.57621975  0.28946150  0.43852791     0.04300
H3895       H  0.54630006  0.26583775  0.42106339     0.06300
H3896       H  0.55160798  0.25506862  0.45012154     0.07100
C3897       C  0.84316799  0.33776769  0.53960644    -0.22500
C3898       C  0.82036243  0.32536046  0.55540657     0.09500
C3899       C  0.79327017  0.30447275  0.54733214     0.09900
C3900       C  0.78931162  0.29748885  0.52314891    -0.17400
C3901       C  0.81186012  0.31106384  0.50708213    -0.27800
C3902       C  0.83933230  0.33065790  0.51551272     0.18200
C3903       C  0.82498945  0.33519712  0.58020228     0.12200
C3904       C  0.76855154  0.28995214  0.56417868    -0.12200
H3905       H  0.76832265  0.28245384  0.51657390     0.12500
C3906       C  0.86505627  0.34432326  0.49966861    -0.23000
H3907       H  0.86401476  0.35338555  0.54606803     0.08100
C3908       C  0.83671059  0.32545392  0.59703382     0.04500
C3909       C  0.83753636  0.33281720  0.62089604    -0.20200
C3910       C  0.82714214  0.34982586  0.62810458    -0.12500
C3911       C  0.81684362  0.36085837  0.61107145     0.13200
C3912       C  0.81602586  0.35347552  0.58716764    -0.23000
C3913       C  0.84737773  0.30655381  0.58995510    -0.06000
H3914       H  0.84552199  0.32455447  0.63416014     0.14700
C3915       C  0.80521606  0.37893624  0.61818600    -0.16200
H3916       H  0.80732828  0.36102750  0.57395812     0.09000
H3917       H  0.88114509  0.34023545  0.50696454     0.06900
H3918       H  0.87410934  0.36747591  0.49903634     0.08100
H3919       H  0.86053555  0.33602029  0.48129737     0.07100
H3920       H  0.76449139  0.30565484  0.57232902     0.02000
H3921       H  0.77321453  0.27912353  0.57840943     0.02500
H3922       H  0.74897738  0.27393078  0.55496195     0.06000
H3923       H  0.85546952  0.30054257  0.60547921     0.05000
H3924       H  0.86489406  0.31764989  0.57695122    -0.00800
H3925       H  0.83001310  0.28693222  0.58179401     0.00700
H3926       H  0.79738672  0.38512345  0.60259612     0.04300
H3927       H  0.82195926  0.39851629  0.62686722     0.06300
H3928       H  0.78734321  0.36714849  0.63073529     0.07100
C3929       C  0.85568140  0.40385444  0.34449351    -0.22500
C3930       C  0.83860903  0.39215046  0.32436710     0.09500
C3931       C  0.81577525  0.36389624  0.32495246     0.09900
C3932       C  0.80961508  0.34847769  0.34608699    -0.17400
C3933       C  0.82521454  0.36084796  0.36680944    -0.27800
C3934       C  0.84902779  0.38872737  0.36594458     0.18200
C3935       C  0.84086047  0.41113007  0.30491146     0.12200
C3936       C  0.79667107  0.35065972  0.30380797    -0.12200
H3937       H  0.79134744  0.32713504  0.34687633     0.12500
C3938       C  0.86644699  0.40416254  0.38744595    -0.23000
H3939       H  0.87289035  0.42573849  0.34400513     0.08100
C3940       C  0.82742099  0.42655704  0.30723723     0.04500
C3941       C  0.82523284  0.44036021  0.28739380    -0.20200
C3942       C  0.83629721  0.43953331  0.26520035    -0.12500
C3943       C  0.85104417  0.42514482  0.26310079     0.13200
C3944       C  0.85311409  0.41108416  0.28312460    -0.23000
C3945       C  0.81407996  0.42727692  0.33038817    -0.06000
H3946       H  0.81348047  0.45079645  0.28890904     0.14700
C3947       C  0.86320540  0.42239636  0.24006158    -0.16200
H3948       H  0.86316763  0.39892447  0.28145905     0.09000
H3949       H  0.86553357  0.42340936  0.39043801     0.06900
H3950       H  0.88876183  0.41058408  0.38430518     0.08100
H3951       H  0.85923124  0.39154419  0.40397107     0.07100
H3952       H  0.80912589  0.35057963  0.28842695     0.02000
H3953       H  0.78665428  0.36283668  0.29910060     0.02500
H3954       H  0.77957193  0.32850217  0.30745823     0.06000
H3955       H  0.80372088  0.43969622  0.32890253     0.05000
H3956       H  0.83048693  0.43711060  0.34438482    -0.00800
H3957       H  0.79776539  0.40550276  0.33591800     0.00700
H3958       H  0.88627845  0.43162138  0.24216091     0.04300
H3959       H  0.85996222  0.43298873  0.22488279     0.06300
H3960       H  0.85316672  0.39970958  0.23548180     0.07100
C3961       C  0.58522380  0.21208202  0.47723065    -0.22500
C3962       C  0.60195025  0.20661989  0.46220967     0.09500
C3963       C  0.58904230  0.18695140  0.44352473     0.09900
C3964       C  0.56001983  0.17452320  0.43948998    -0.17400
C3965       C  0.54399509  0.18233830  0.45285629    -0.27800
C3966       C  0.55636606  0.20033136  0.47265396     0.18200
C3967       C  0.63316481  0.22428303  0.46404401     0.12200
C3968       C  0.60615438  0.18059946  0.42674078    -0.12200
H3969       H  0.55030931  0.16037281  0.42461517     0.12500
C3970       C  0.53976500  0.20788721  0.48892506    -0.23000
H3971       H  0.59505329  0.22681219  0.49179738     0.08100
C3972       C  0.64782630  0.25239219  0.45562209     0.04500
C3973       C  0.67714761  0.26659109  0.45278414    -0.20200
C3974       C  0.69224577  0.25336217  0.45781437    -0.12500
C3975       C  0.67793662  0.22616363  0.46832984     0.13200
C3976       C  0.64844439  0.21194329  0.47133272    -0.23000
C3977       C  0.63248613  0.26693638  0.44822213    -0.06000
H3978       H  0.68820697  0.28770271  0.44527976     0.14700
C3979       C  0.69318815  0.21138911  0.47510965    -0.16200
H3980       H  0.63701915  0.19049715  0.47814537     0.09000
H3981       H  0.54883371  0.23104036  0.48846815     0.06900
H3982       H  0.54096492  0.20151398  0.50739224     0.08100
H3983       H  0.51711570  0.19715367  0.48404987     0.07100
H3984       H  0.61631847  0.17099964  0.43664804     0.02000
H3985       H  0.62268187  0.20037223  0.41800071     0.02500
H3986       H  0.59281742  0.16558495  0.41260578     0.06000
H3987       H  0.64724335  0.28860430  0.44138336     0.05000
H3988       H  0.62113250  0.26873992  0.46367626    -0.00800
H3989       H  0.61711062  0.25470552  0.43394961     0.00700
H3990       H  0.70946145  0.22396492  0.48869368     0.04300
H3991       H  0.70342385  0.20874242  0.45923468     0.06300
H3992       H  0.67854829  0.19011239  0.48273870     0.07100
C3993       C  0.75171788  0.39424336  0.47387441    -0.22500
C3994       C  0.75566240  0.41463471  0.45699698     0.09500
C3995       C  0.77209288  0.41851526  0.43648180     0.09900
C3996       C  0.78284698  0.40088506  0.43274985    -0.17400
C3997       C  0.77718321  0.37925141  0.44883723    -0.27800
C3998       C  0.76201314  0.37628665  0.46990850     0.18200
C3999       C  0.73973194  0.42926295  0.45953691     0.12200
C4000       C  0.77685794  0.44006203  0.41779814    -0.12200
H4001       H  0.79402499  0.40268953  0.41640043     0.12500
C4002       C  0.75566215  0.35382518  0.48818195    -0.23000
H4003       H  0.73937333  0.39141459  0.48968271     0.08100
C4004       C  0.71033458  0.41473686  0.45539411     0.04500
C4005       C  0.69670736  0.42996903  0.45417825    -0.20200
C4006       C  0.71167386  0.45950602  0.45650240    -0.12500
C4007       C  0.74098195  0.47394798  0.46173084     0.13200
C4008       C  0.75444436  0.45848123  0.46359316    -0.23000
C4009       C  0.69349629  0.38336049  0.45087997    -0.06000
H4010       H  0.67433391  0.41886392  0.45015674     0.14700
C4011       C  0.75941342  0.50561303  0.46373702    -0.16200
H4012       H  0.77696422  0.46954770  0.46686173     0.09000
H4013       H  0.73245009  0.33935494  0.48985487     0.06900
H4014       H  0.76433068  0.36393641  0.50563402     0.08100
H4015       H  0.76508207  0.34106322  0.48369862     0.07100
H4016       H  0.78885204  0.46159134  0.42548169     0.02000
H4017       H  0.75624996  0.43588510  0.41103843     0.02500
H4018       H  0.78914231  0.43947147  0.40247439     0.06000
H4019       H  0.67100685  0.37563697  0.44697191     0.05000
H4020       H  0.69404941  0.37183289  0.46677586    -0.00800
H4021       H  0.70244720  0.37826451  0.43542020     0.00700
H4022       H  0.76908263  0.51122158  0.48167942     0.04300
H4023       H  0.74810232  0.51679217  0.46086265     0.06300
H4024       H  0.77654003  0.51364748  0.45025731     0.07100
C4025       C  0.86623509  0.24649455  0.43178701    -0.22500
C4026       C  0.88482566  0.25830633  0.41251514     0.09500
C4027       C  0.88701257  0.28159570  0.40028178     0.09900
C4028       C  0.86991626  0.29211296  0.40732225    -0.17400
C4029       C  0.84999998  0.27904315  0.42565916    -0.27800
C4030       C  0.84855232  0.25633059  0.43834277     0.18200
C4031       C  0.89923470  0.24369800  0.40420226     0.12200
C4032       C  0.90679360  0.29476397  0.37948878    -0.12200
H4033       H  0.87100077  0.30956553  0.39768115     0.12500
C4034       C  0.82820044  0.24221149  0.45871145    -0.23000
H4035       H  0.86468738  0.22863751  0.44106558     0.08100
C4036       C  0.92307430  0.24664625  0.41591532     0.04500
C4037       C  0.93336101  0.22924082  0.40933531    -0.20200
C4038       C  0.92010800  0.20878162  0.39147923    -0.12500
C4039       C  0.89714538  0.20702234  0.37888575     0.13200
C4040       C  0.88681991  0.22422068  0.38566891    -0.23000
C4041       C  0.93725589  0.26779490  0.43558588    -0.06000
H4042       H  0.95110904  0.23081637  0.41883051     0.14700
C4043       C  0.88327414  0.18774388  0.35792662    -0.16200
H4044       H  0.86860324  0.22214556  0.37660740     0.09000
H4045       H  0.83165701  0.25817688  0.47228667     0.06900
H4046       H  0.83100276  0.22589435  0.46741255     0.08100
H4047       H  0.80612510  0.23160588  0.45221731     0.07100
H4048       H  0.90082572  0.27889988  0.36519274     0.02000
H4049       H  0.92876867  0.30246072  0.38521037     0.02500
H4050       H  0.90610544  0.31290948  0.37203218     0.06000
H4051       H  0.95579750  0.26763806  0.44272800     0.05000
H4052       H  0.92214268  0.26284684  0.45039300    -0.00800
H4053       H  0.94462945  0.28933011  0.42875979     0.00700
H4054       H  0.86110360  0.17148612  0.36247735     0.04300
H4055       H  0.89433284  0.17708080  0.35200557     0.06300
H4056       H  0.88324822  0.20028367  0.34255104     0.07100
C4057       C  0.65056647  0.15775398  0.09826811    -0.22500
C4058       C  0.63200246  0.15596618  0.08065708     0.09500
C4059       C  0.60516789  0.15070703  0.08707599     0.09900
C4060       C  0.59741302  0.14725629  0.11115541    -0.17400
C4061       C  0.61583507  0.14883020  0.12912016    -0.27800
C4062       C  0.64302653  0.15435908  0.12240415     0.18200
C4063       C  0.64103147  0.15919172  0.05551010     0.12200
C4064       C  0.58482438  0.14894151  0.06847745    -0.12200
H4065       H  0.57674022  0.14328924  0.11589291     0.12500
C4066       C  0.66461820  0.15711187  0.14020363    -0.23000
H4067       H  0.67114286  0.16183798  0.09299757     0.08100
C4068       C  0.65842053  0.18600738  0.04511626     0.04500
C4069       C  0.66657262  0.18788846  0.02126291    -0.20200
C4070       C  0.65710476  0.16357768  0.00730880    -0.12500
C4071       C  0.63948955  0.13662442  0.01788091     0.13200
C4072       C  0.63206178  0.13488338  0.04194212    -0.23000
C4073       C  0.66771267  0.21257788  0.05903963    -0.06000
H4074       H  0.67968876  0.20858551  0.01325220     0.14700
C4075       C  0.62853882  0.10956196  0.00420015    -0.16200
H4076       H  0.61874391  0.11436288  0.05023204     0.09000
H4077       H  0.66992827  0.17466977  0.15265604     0.06900
H4078       H  0.68459960  0.16186828  0.13151063     0.08100
H4079       H  0.65633451  0.13699577  0.15012922     0.07100
H4080       H  0.57966548  0.13145497  0.05599625     0.02000
H4081       H  0.59449105  0.16911203  0.05840967     0.02500
H4082       H  0.56477803  0.14493636  0.07649212     0.06000
H4083       H  0.68092898  0.23182252  0.04813390     0.05000
H4084       H  0.68029543  0.21342481  0.07466450    -0.00800
H4085       H  0.64889133  0.21286823  0.06522555     0.00700
H4086       H  0.64640799  0.10892418  0.99613672     0.04300
H4087       H  0.61376418  0.10790163  0.99014278     0.06300
H4088       H  0.61673328  0.09068933  0.01582226     0.07100
C4089       C  0.55386863  0.24408142  0.16641437    -0.22500
C4090       C  0.52466816  0.23121664  0.16971142     0.09500
C4091       C  0.50766436  0.20154772  0.17118945     0.09900
C4092       C  0.52065933  0.18571117  0.17286558    -0.17400
C4093       C  0.55023624  0.19909432  0.17317355    -0.27800
C4094       C  0.56688166  0.22828416  0.16769847     0.18200
C4095       C  0.51382864  0.24921381  0.17754139     0.12200
C4096       C  0.47600425  0.18693461  0.17272064    -0.12200
H4097       H  0.50772588  0.16320522  0.17631213     0.12500
C4098       C  0.59838436  0.24350749  0.16385182    -0.23000
H4099       H  0.56682916  0.26686787  0.16459510     0.08100
C4100       C  0.51501192  0.25591949  0.20184197     0.04500
C4101       C  0.50719519  0.27491510  0.20903626    -0.20200
C4102       C  0.49828782  0.28762239  0.19258135    -0.12500
C4103       C  0.49607921  0.28016353  0.16823323     0.13200
C4104       C  0.50395748  0.26095245  0.16099132    -0.23000
C4105       C  0.52522595  0.24352085  0.22024197    -0.06000
H4106       H  0.50860141  0.28032783  0.22765898     0.14700
C4107       C  0.48684977  0.29332739  0.14973568    -0.16200
H4108       H  0.50310794  0.25561675  0.14238348     0.09000
H4109       H  0.60944953  0.25904484  0.17830148     0.06900
H4110       H  0.60379734  0.25492282  0.14659456     0.08100
H4111       H  0.60634183  0.22893884  0.16306255     0.07100
H4112       H  0.46791165  0.19205363  0.15667255     0.02000
H4113       H  0.46985187  0.19406814  0.18875158     0.02500
H4114       H  0.46582344  0.16362852  0.17375860     0.06000
H4115       H  0.52475423  0.25099428  0.23841600     0.05000
H4116       H  0.54731805  0.24971965  0.21628029    -0.00800
H4117       H  0.51155527  0.22014344  0.22019195     0.00700
H4118       H  0.50108174  0.31664540  0.15002059     0.04300
H4119       H  0.46484037  0.28765727  0.15331591     0.06300
H4120       H  0.48744590  0.28589940  0.13156422     0.07100
C4121       C  0.65506098  0.20128488  0.31462467    -0.22500
C4122       C  0.67548038  0.19396395  0.31728676     0.09500
C4123       C  0.67695461  0.17591632  0.30065256     0.09900
C4124       C  0.65926907  0.16720975  0.28067128    -0.17400
C4125       C  0.63983545  0.17585172  0.27706457    -0.27800
C4126       C  0.63706638  0.19239269  0.29481724     0.18200
C4127       C  0.69656980  0.20750358  0.33651950     0.12200
C4128       C  0.69744383  0.16618939  0.30391273    -0.12200
H4129       H  0.66119582  0.15415895  0.26743027     0.12500
C4130       C  0.61634705  0.20203605  0.29266387    -0.23000
H4131       H  0.65399558  0.21499765  0.32771607     0.08100
C4132       C  0.72238343  0.23299172  0.33237148     0.04500
C4133       C  0.74044362  0.24698530  0.35150363    -0.20200
C4134       C  0.73293999  0.23674594  0.37488876    -0.12500
C4135       C  0.70759968  0.21047360  0.37885936     0.13200
C4136       C  0.68979306  0.19608357  0.35951138    -0.23000
C4137       C  0.73017155  0.24630035  0.30799386    -0.06000
H4138       H  0.75979626  0.26711169  0.34837342     0.14700
C4139       C  0.69817685  0.19842032  0.40347764    -0.16200
H4140       H  0.66987267  0.17652515  0.36245307     0.09000
H4141       H  0.62089033  0.21505708  0.27639097     0.06900
H4142       H  0.61758384  0.21511888  0.30804700     0.08100
H4143       H  0.59445826  0.18343600  0.29201806     0.07100
H4144       H  0.69294641  0.15452336  0.32097600     0.02000
H4145       H  0.71943518  0.18456921  0.30421336     0.02500
H4146       H  0.69577240  0.15193752  0.28935856     0.06000
H4147       H  0.75093573  0.26649058  0.30800105     0.05000
H4148       H  0.71397918  0.25081850  0.30177650    -0.00800
H4149       H  0.73144508  0.23184093  0.29523309     0.00700
H4150       H  0.67767100  0.17798735  0.40322882     0.04300
H4151       H  0.69547791  0.21330225  0.41462236     0.06300
H4152       H  0.71409233  0.19464875  0.41164648     0.07100
C4153       C  0.50936320  0.13521086  0.33439546    -0.22500
C4154       C  0.48567256  0.11600797  0.32126318     0.09500
C4155       C  0.45859357  0.10361728  0.33163365     0.09900
C4156       C  0.45570510  0.11301382  0.35412813    -0.17400
C4157       C  0.47942615  0.13400246  0.36658853    -0.27800
C4158       C  0.50671302  0.14417537  0.35691230     0.18200
C4159       C  0.49049765  0.11233035  0.29594813     0.12200
C4160       C  0.43306195  0.08015892  0.31924645    -0.12200
H4161       H  0.43485080  0.10439508  0.36171254     0.12500
C4162       C  0.53335562  0.16401906  0.37029246    -0.23000
H4163       H  0.53016809  0.14407691  0.32651626     0.08100
C4164       C  0.48856456  0.12940399  0.27833255     0.04500
C4165       C  0.50143327  0.13248178  0.25618883    -0.20200
C4166       C  0.51704243  0.11977458  0.25147944    -0.12500
C4167       C  0.51743508  0.10120088  0.26842491     0.13200
C4168       C  0.50393760  0.09752898  0.29047456    -0.23000
C4169       C  0.47556474  0.14678841  0.28362101    -0.06000
H4170       H  0.50157255  0.14702853  0.24322899     0.14700
C4171       C  0.53414926  0.08730521  0.26411010    -0.16200
H4172       H  0.50592195  0.08498242  0.30422125     0.09000
H4173       H  0.55249416  0.16719980  0.36107418     0.06900
H4174       H  0.53243895  0.15489953  0.38800088     0.08100
H4175       H  0.53588659  0.18507143  0.37215527     0.07100
H4176       H  0.43597419  0.06205813  0.31656665     0.02000
H4177       H  0.43006346  0.08724094  0.30169255     0.02500
H4178       H  0.41352214  0.07267051  0.32985610     0.06000
H4179       H  0.47674603  0.15968775  0.26805813     0.05000
H4180       H  0.48688542  0.16140357  0.29857288    -0.00800
H4181       H  0.45299846  0.13289718  0.28840529     0.00700
H4182       H  0.55674021  0.10358950  0.26101591     0.04300
H4183       H  0.52563745  0.07345237  0.24830708     0.06300
H4184       H  0.53292401  0.07412584  0.27946407     0.07100
C4185       C  0.75542752  0.34483997  0.18252708    -0.22500
C4186       C  0.72656394  0.33148743  0.18727954     0.09500
C4187       C  0.71452904  0.34759575  0.19297196     0.09900
C4188       C  0.73192888  0.37699869  0.19422934    -0.17400
C4189       C  0.76137443  0.39067963  0.19101711    -0.27800
C4190       C  0.77319437  0.37421876  0.18459161     0.18200
C4191       C  0.70998387  0.30056105  0.18962065     0.12200
C4192       C  0.68354117  0.33361804  0.19886809    -0.12200
H4193       H  0.72252800  0.38915342  0.19907364     0.12500
C4194       C  0.80445532  0.38676377  0.18097368    -0.23000
H4195       H  0.76427474  0.33197168  0.17846899     0.08100
C4196       C  0.69458006  0.28280043  0.17049930     0.04500
C4197       C  0.67619104  0.25387922  0.17479359    -0.20200
C4198       C  0.67281879  0.24288914  0.19780807    -0.12500
C4199       C  0.68950688  0.26044492  0.21663578     0.13200
C4200       C  0.70817138  0.28914794  0.21220382    -0.23000
C4201       C  0.69695069  0.29454537  0.14591360    -0.06000
H4202       H  0.66320636  0.24012331  0.16048695     0.14700
C4203       C  0.68742469  0.24904001  0.24142525    -0.16200
H4204       H  0.72047832  0.30307354  0.22666324     0.09000
H4205       H  0.81232830  0.40289632  0.16663903     0.06900
H4206       H  0.80938364  0.37056263  0.17570368     0.08100
H4207       H  0.81594574  0.39632736  0.19777786     0.07100
H4208       H  0.67837224  0.31956109  0.21454369     0.02000
H4209       H  0.67064926  0.32090493  0.18352892     0.02500
H4210       H  0.67759441  0.34933497  0.20313598     0.06000
H4211       H  0.68338009  0.27770579  0.13303575     0.05000
H4212       H  0.71916971  0.30497623  0.13969099    -0.00800
H4213       H  0.69035565  0.31024417  0.14612046     0.00700
H4214       H  0.70322586  0.26546265  0.25354840     0.04300
H4215       H  0.69123689  0.23133786  0.24092905     0.06300
H4216       H  0.66621579  0.24143070  0.24906918     0.07100
C4217       C  0.54124598  0.98050334  0.26451920    -0.22500
C4218       C  0.54721278  0.98535640  0.24019787     0.09500
C4219       C  0.54093143  0.96271683  0.22500766     0.09900
C4220       C  0.52697292  0.93522849  0.23422127    -0.17400
C4221       C  0.51918378  0.92999270  0.25827771    -0.27800
C4222       C  0.52734930  0.95300183  0.27383738     0.18200
C4223       C  0.55728686  0.01380612  0.23063148     0.12200
C4224       C  0.54827438  0.96753820  0.19897728    -0.12200
H4225       H  0.52091681  0.91767991  0.22236308     0.12500
C4226       C  0.52196007  0.94885911  0.30021825    -0.23000
H4227       H  0.54659886  0.99819598  0.27603791     0.08100
C4228       C  0.53787289  0.02147204  0.22361206     0.04500
C4229       C  0.54796768  0.04868174  0.21484155    -0.20200
C4230       C  0.57705886  0.06868159  0.21345349    -0.12500
C4231       C  0.59656951  0.06073801  0.22010043     0.13200
C4232       C  0.58632706  0.03323362  0.22856049    -0.23000
C4233       C  0.50646113  0.00101467  0.22567086    -0.06000
H4234       H  0.53299381  0.05460802  0.20975576     0.14700
C4235       C  0.62804342  0.08071816  0.21786396    -0.16200
H4236       H  0.60097388  0.02686463  0.23378809     0.09000
H4237       H  0.49897502  0.93731738  0.30398426     0.06900
H4238       H  0.53176950  0.96934200  0.30973773     0.08100
H4239       H  0.53116742  0.93684339  0.30745331     0.07100
H4240       H  0.57146738  0.98179271  0.19685680     0.02000
H4241       H  0.53747357  0.97735400  0.19043559     0.02500
H4242       H  0.54176270  0.94748195  0.18959814     0.06000
H4243       H  0.49427526  0.01050667  0.21946945     0.05000
H4244       H  0.50071014  0.99455698  0.24450535    -0.00800
H4245       H  0.50013760  0.98200261  0.21475214     0.00700
H4246       H  0.63529313  0.09865803  0.23031145     0.04300
H4247       H  0.63348910  0.08874216  0.19934421     0.06300
H4248       H  0.63980922  0.07016407  0.22223836     0.07100
loop_ 
_geom_bond_atom_site_label_1 
_geom_bond_atom_site_label_2 
_geom_bond_distance 
_geom_bond_site_symmetry_2 
_ccdc_geom_bond_type 
O1           C16   1.259       .  A
O1           Al9   1.895       .  S
C2           O12   1.262       .  A
C2            O3   1.261       .  A
C2         C4166   1.474       .  S
O3           Al5   1.903       .  S
O4            C6   1.261       .  A
O4           Al5   1.898       .  S
Al5          O13   1.884       .  S
Al5          O15   1.894       .  S
Al5          O14   1.771       .  S
C6           O19   1.266       .  A
C6         C4125   1.488       .  S
O7           C17   1.259       .  A
O7           Al9   1.883       .  S
O8           C21   1.264       .  A
O8          Al18   1.904       .  S
Al9          O22   1.915       .  S
Al9          O19   1.925       .  S
Al9          O14   1.778       .  S
O10          C17   1.266       .  A
O10         Al18   1.921       .  S
O11          C20   1.266       .  A
O11         Al18   1.934       .  S
O12         Al18   1.914       .  S
O13          C20   1.259       .  A
O14         Al18   1.778       .  S
O15          C16   1.259       .  A
C16        C4198   1.458       .  S
C17        C4230   1.479       .  S
C20        C4093   1.482       .  S
C21          O22   1.262       .  A
C21        C4061   1.495       .  S
O23          C38   1.257       .  A
O23         Al31   1.868       .  S
C24          O34   1.259       .  A
C24          O25   1.270       .  A
C24        C4134   1.483       .  S
O25         Al27   1.950       .  S
O26          C28   1.258       .  A
O26         Al27   1.882       .  S
Al27         O35   1.908       .  S
Al27         O37   1.925       .  S
Al27         O36   1.786       .  S
C28          O41   1.265       .  A
C28        C4029   1.477       .  S
O29          C39   1.257       .  A
O29         Al31   1.896       .  S
O30          C43   1.257       .  A
O30         Al40   1.873       .  S
Al31         O44   1.956       .  S
Al31         O41   1.931       .  S
Al31         O36   1.785       .  S
O32          C39   1.260       .  A
O32         Al40   1.905       .  S
O33          C42   1.259       .  A
O33         Al40   1.900       .  S
O34         Al40   1.870       .  S
O35          C42   1.259       .  A
O36         Al40   1.770       .  S
O37          C38   1.265       .  A
C38        C3901   1.466       .  S
C39        C3933   1.469       .  S
C42        C3974   1.481       .  S
C43          O44   1.270       .  A
C43        C3997   1.472       .  S
O45          C60   1.255       .  A
O45         Al53   1.868       .  S
C46          O56   1.263       .  A
C46          O47   1.269       .  A
C46        C3805   1.485       .  S
O47         Al49   1.937       .  S
O48          C50   1.257       .  A
O48         Al49   1.879       .  S
Al49         O57   1.919       .  S
Al49         O59   1.930       .  S
Al49         O58   1.783       .  S
C50          O63   1.264       .  A
C50        C3741   1.481       .  S
O51          C61   1.256       .  A
O51         Al53   1.900       .  S
O52          C65   1.260       .  A
O52         Al62   1.873       .  S
Al53         O66   1.946       .  S
Al53         O63   1.925       .  S
Al53         O58   1.785       .  S
O54          C61   1.260       .  A
O54         Al62   1.911       .  S
O55          C64   1.258       .  A
O55         Al62   1.906       .  S
O56         Al62   1.878       .  S
O57          C64   1.260       .  A
O58         Al62   1.772       .  S
O59          C60   1.264       .  A
C60        C3773   1.467       .  S
C61        C3837   1.489       .  S
C64        C4006   1.484       .  S
C65          O66   1.271       .  A
C65        C3869   1.469       .  S
O67          C82   1.260       .  A
O67         Al75   1.899       .  S
C68          O78   1.261       .  A
C68          O69   1.267       .  A
C68        C3846   1.470       .  S
O69         Al71   1.921       .  S
O70          C72   1.258       .  A
O70         Al71   1.883       .  S
Al71         O79   1.882       .  S
Al71         O81   1.913       .  S
Al71         O80   1.767       .  S
C72          O85   1.263       .  A
C72        C3677   1.482       .  S
O73          C83   1.261       .  A
O73         Al75   1.895       .  S
O74          C87   1.260       .  A
O74         Al84   1.877       .  S
Al75         O88   1.922       .  S
Al75         O85   1.929       .  S
Al75         O80   1.783       .  S
O76          C83   1.263       .  A
O76         Al84   1.904       .  S
O77          C86   1.260       .  A
O77         Al84   1.921       .  S
O78         Al84   1.898       .  S
O79          C86   1.257       .  A
O80         Al84   1.781       .  S
O81          C82   1.265       .  A
C82        C4102   1.481       .  S
C83        C3718   1.475       .  S
C86        C3645   1.490       .  S
C87          O88   1.266       .  A
C87        C3613   1.480       .  S
O89         C104   1.257       .  A
O89         Al97   1.881       .  S
C90         O100   1.264       .  A
C90          O91   1.270       .  A
C90        C3686   1.475       .  S
O91         Al93   1.941       .  S
O92          C94   1.257       .  A
O92         Al93   1.863       .  S
Al93        O101   1.914       .  S
Al93        O103   1.908       .  S
Al93        O102   1.786       .  S
C94         O107   1.264       .  A
C94        C3590   1.472       .  S
O95         C105   1.258       .  A
O95         Al97   1.919       .  S
O96         C109   1.261       .  A
O96        Al106   1.876       .  S
Al97        O110   1.950       .  S
Al97        O107   1.919       .  S
Al97        O102   1.788       .  S
O98         C105   1.256       .  A
O98        Al106   1.901       .  S
O99         C108   1.254       .  A
O99        Al106   1.891       .  S
O100       Al106   1.883       .  S
O101        C108   1.259       .  A
O102       Al106   1.771       .  S
O103        C104   1.261       .  A
C104       C3549   1.477       .  S
C105       C4157   1.490       .  S
C108       C3878   1.479       .  S
C109        O110   1.272       .  A
C109       C3965   1.470       .  S
O111        C126   1.259       .  A
O111       Al119   1.902       .  S
C112        O122   1.264       .  A
C112        O113   1.263       .  A
C112       C3942   1.479       .  S
O113       Al115   1.900       .  S
O114        C116   1.259       .  A
O114       Al115   1.890       .  S
Al115       O123   1.890       .  S
Al115       O125   1.906       .  S
Al115       O124   1.771       .  S
C116        O129   1.264       .  A
C116       C3814   1.482       .  S
O117        C127   1.261       .  A
O117       Al119   1.892       .  S
O118        C131   1.264       .  A
O118       Al128   1.901       .  S
Al119       O132   1.913       .  S
Al119       O129   1.927       .  S
Al119       O124   1.781       .  S
O120        C127   1.262       .  A
O120       Al128   1.907       .  S
O121        C130   1.260       .  A
O121       Al128   1.910       .  S
O122       Al128   1.915       .  S
O123        C130   1.260       .  A
O124       Al128   1.780       .  S
O125        C126   1.262       .  A
C126       C3654   1.466       .  S
C127       C3517   1.469       .  S
C130       C4189   1.489       .  S
C131        O132   1.262       .  A
C131       C3494   1.489       .  S
O133        C148   1.269       .  A
O133       Al141   1.939       .  S
C134        O144   1.264       .  A
C134        O135   1.259       .  A
C134       C3334   1.472       .  S
O135       Al137   1.880       .  S
O136        C138   1.257       .  A
O136       Al137   1.895       .  S
Al137       O145   1.907       .  S
Al137       O147   1.880       .  S
Al137       O146   1.772       .  S
C138        O151   1.256       .  A
C138       C3357   1.475       .  S
O139        C149   1.268       .  A
O139       Al141   1.939       .  S
O140        C153   1.260       .  A
O140       Al150   1.914       .  S
Al141       O154   1.874       .  S
Al141       O151   1.900       .  S
Al141       O146   1.784       .  S
O142        C149   1.261       .  A
O142       Al150   1.872       .  S
O143        C152   1.261       .  A
O143       Al150   1.905       .  S
O144       Al150   1.932       .  S
O145        C152   1.263       .  A
O146       Al150   1.790       .  S
O147        C148   1.260       .  A
C148       C3421   1.478       .  S
C149       C3453   1.479       .  S
C152       C3389   1.470       .  S
C153        O154   1.255       .  A
C153       C3622   1.470   1_556  S
O155        C170   1.254       .  A
O155       Al163   1.870       .  S
C156        O166   1.264       .  A
C156        O157   1.271       .  A
C156       C3366   1.467       .  S
O157       Al159   1.939       .  S
O158        C160   1.255       .  A
O158       Al159   1.878       .  S
Al159       O167   1.902       .  S
Al159       O169   1.921       .  S
Al159       O168   1.785       .  S
C160        O173   1.264       .  A
C160       C3293   1.477       .  S
O161        C171   1.255       .  A
O161       Al163   1.906       .  S
O162        C175   1.261       .  A
O162       Al172   1.874       .  S
Al163       O176   1.955       .  S
Al163       O173   1.930       .  S
Al163       O168   1.786       .  S
O164        C171   1.259       .  A
O164       Al172   1.908       .  S
O165        C174   1.256       .  A
O165       Al172   1.906       .  S
O166       Al172   1.881       .  S
O167        C174   1.256       .  A
O168       Al172   1.777       .  S
O169        C170   1.266       .  A
C170       C3782   1.493       .  S
C171       C3229   1.484       .  S
C174       C3197   1.478       .  S
C175        O176   1.272       .  A
C175       C3261   1.469       .  S
O177        C192   1.257       .  A
O177       Al185   1.875       .  S
C178        O188   1.261       .  A
C178        O179   1.268       .  A
C178       C3133   1.490       .  S
O179       Al181   1.939       .  S
O180        C182   1.256       .  A
O180       Al181   1.864       .  S
Al181       O189   1.899       .  S
Al181       O191   1.916       .  S
Al181       O190   1.780       .  S
C182        O195   1.266       .  A
C182       C3174   1.483       .  S
O183        C193   1.258       .  A
O183       Al185   1.898       .  S
O184        C197   1.259       .  A
O184       Al194   1.873       .  S
Al185       O198   1.949       .  S
Al185       O195   1.936       .  S
Al185       O190   1.785       .  S
O186        C193   1.260       .  A
O186       Al194   1.898       .  S
O187        C196   1.259       .  A
O187       Al194   1.898       .  S
O188       Al194   1.873       .  S
O189        C196   1.256       .  A
O190       Al194   1.769       .  S
O191        C192   1.264       .  A
C192       C3558   1.472       .  S
C193       C3325   1.475       .  S
C196       C3110   1.482       .  S
C197        O198   1.270       .  A
C197       C3206   1.469       .  S
O199        C214   1.259       .  A
O199       Al207   1.902       .  S
C200        O210   1.264       .  A
C200        O201   1.263       .  A
C200       C3037   1.466       .  S
O201       Al203   1.907       .  S
O202        C204   1.258       .  A
O202       Al203   1.887       .  S
Al203       O211   1.888       .  S
Al203       O213   1.908       .  S
Al203       O212   1.772       .  S
C204        O217   1.266       .  A
C204       C3142   1.492       .  S
O205        C215   1.261       .  A
O205       Al207   1.902       .  S
O206        C219   1.264       .  A
O206       Al216   1.895       .  S
Al207       O220   1.922       .  S
Al207       O217   1.926       .  S
Al207       O212   1.779       .  S
O208        C215   1.263       .  A
O208       Al216   1.920       .  S
O209        C218   1.264       .  A
O209       Al216   1.925       .  S
O210       Al216   1.911       .  S
O211        C218   1.257       .  A
O212       Al216   1.783       .  S
O213        C214   1.261       .  A
C214       C3398   1.476       .  S
C215       C3069   1.480       .  S
C218       C3014   1.486       .  S
C219        O220   1.266       .  A
C219       C4070   1.485   1_556  S
O221        C236   1.255       .  A
O221       Al229   1.865       .  S
C222        O232   1.263       .  A
C222        O223   1.269       .  A
C222       C2941   1.473       .  S
O223       Al225   1.936       .  S
O224        C226   1.258       .  A
O224       Al225   1.879       .  S
Al225       O233   1.916       .  S
Al225       O235   1.911       .  S
Al225       O234   1.781       .  S
C226        O239   1.261       .  A
C226       C2973   1.469       .  S
O227        C237   1.253       .  A
O227       Al229   1.894       .  S
O228        C241   1.261       .  A
O228       Al238   1.869       .  S
Al229       O242   1.941       .  S
Al229       O239   1.911       .  S
Al229       O234   1.789       .  S
O230        C237   1.257       .  A
O230       Al238   1.896       .  S
O231        C240   1.257       .  A
O231       Al238   1.899       .  S
O232       Al238   1.879       .  S
O233        C240   1.258       .  A
O234       Al238   1.775       .  S
O235        C236   1.261       .  A
C236       C3910   1.464       .  S
C237       C3046   1.486       .  S
C240       C3270   1.484       .  S
C241        O242   1.270       .  A
C241       C3101   1.466       .  S
O243        C258   1.262       .  A
O243       Al251   1.899       .  S
C244        O254   1.261       .  A
C244        O245   1.261       .  A
C244       C3238   1.473       .  S
O245       Al247   1.903       .  S
O246        C248   1.258       .  A
O246       Al247   1.890       .  S
Al247       O255   1.881       .  S
Al247       O257   1.913       .  S
Al247       O256   1.766       .  S
C248        O261   1.260       .  A
C248       C2950   1.465       .  S
O249        C259   1.260       .  A
O249       Al251   1.882       .  S
O250        C263   1.261       .  A
O250       Al260   1.897       .  S
Al251       O264   1.904       .  S
Al251       O261   1.909       .  S
Al251       O256   1.785       .  S
O252        C259   1.267       .  A
O252       Al260   1.920       .  S
O253        C262   1.263       .  A
O253       Al260   1.923       .  S
O254       Al260   1.909       .  S
O255        C262   1.258       .  A
O256       Al260   1.781       .  S
O257        C258   1.265       .  A
C258       C3005   1.478       .  S
C259       C2918   1.467       .  S
C262       C3430   1.470       .  S
C263        O264   1.259       .  A
C263       C3485   1.480   1_556  S
O265        C280   1.261       .  A
O265       Al273   1.911       .  S
C266        O276   1.264       .  A
C266        O267   1.262       .  A
C266       C2813   1.474       .  S
O267       Al269   1.901       .  S
O268        C270   1.256       .  A
O268       Al269   1.876       .  S
Al269       O277   1.879       .  S
Al269       O279   1.897       .  S
Al269       O278   1.770       .  S
C270        O283   1.264       .  A
C270       C2781   1.476       .  S
O271        C281   1.263       .  A
O271       Al273   1.907       .  S
O272        C285   1.265       .  A
O272       Al282   1.906       .  S
Al273       O286   1.922       .  S
Al273       O283   1.929       .  S
Al273       O278   1.781       .  S
O274        C281   1.261       .  A
O274       Al282   1.908       .  S
O275        C284   1.263       .  A
O275       Al282   1.931       .  S
O276       Al282   1.922       .  S
O277        C284   1.256       .  A
O278       Al282   1.780       .  S
O279        C280   1.259       .  A
C280       C2845   1.466       .  S
C281       C2886   1.490       .  S
C284       C2749   1.470       .  S
C285        O286   1.267       .  A
C285       C2717   1.498       .  S
O287        C302   1.257       .  A
O287       Al295   1.889       .  S
C288        O298   1.260       .  A
C288        O289   1.267       .  A
C288       C2630   1.471       .  S
O289       Al291   1.936       .  S
O290        C292   1.255       .  A
O290       Al291   1.865       .  S
Al291       O299   1.900       .  S
Al291       O301   1.914       .  S
Al291       O300   1.791       .  S
C292        O305   1.268       .  A
C292       C2982   1.491       .  S
O293        C303   1.257       .  A
O293       Al295   1.905       .  S
O294        C307   1.259       .  A
O294       Al304   1.874       .  S
Al295       O308   1.940       .  S
Al295       O305   1.937       .  S
Al295       O300   1.793       .  S
O296        C303   1.256       .  A
O296       Al304   1.899       .  S
O297        C306   1.259       .  A
O297       Al304   1.906       .  S
O298       Al304   1.884       .  S
O299        C306   1.257       .  A
O300       Al304   1.782       .  S
O301        C302   1.260       .  A
C302       C2589   1.495       .  S
C303       C2822   1.480       .  S
C306       C2653   1.481       .  S
C307        O308   1.269       .  A
C307       C2694   1.467       .  S
O309        C324   1.261       .  A
O309       Al317   1.905       .  S
C310        O320   1.261       .  A
C310        O311   1.263       .  A
C310       C2493   1.486       .  S
O311       Al313   1.916       .  S
O312        C314   1.268       .  A
O312       Al313   1.929       .  S
Al313       O321   1.939       .  S
Al313       O323   1.909       .  S
Al313       O322   1.779       .  S
C314        O327   1.260       .  A
C314       C3165   1.482       .  S
O315        C325   1.266       .  A
O315       Al317   1.933       .  S
O316        C329   1.260       .  A
O316       Al326   1.907       .  S
Al317       O330   1.913       .  S
Al317       O327   1.889       .  S
Al317       O322   1.777       .  S
O318        C325   1.255       .  A
O318       Al326   1.871       .  S
O319        C328   1.257       .  A
O319       Al326   1.878       .  S
O320       Al326   1.897       .  S
O321        C328   1.268       .  A
O322       Al326   1.765       .  S
O323        C324   1.265       .  A
C324       C2461   1.485       .  S
C325       C2566   1.489       .  S
C328       C2534   1.490       .  S
C329        O330   1.261       .  A
C329       C2662   1.471       .  S
O331        C346   1.274       .  A
O331       Al339   1.946       .  S
C332        O342   1.271       .  A
C332        O333   1.265       .  A
C332       C2557   1.467       .  S
O333       Al335   1.874       .  S
O334        C336   1.254       .  A
O334       Al335   1.898       .  S
Al335       O343   1.894       .  S
Al335       O345   1.879       .  S
Al335       O344   1.778       .  S
C336        O349   1.256       .  A
C336       C2621   1.481       .  S
O337        C347   1.262       .  A
O337       Al339   1.920       .  S
O338        C351   1.261       .  A
O338       Al348   1.910       .  S
Al339       O352   1.872       .  S
Al339       O349   1.916       .  S
Al339       O344   1.786       .  S
O340        C347   1.256       .  A
O340       Al348   1.872       .  S
O341        C350   1.253       .  A
O341       Al348   1.901       .  S
O342       Al348   1.936       .  S
O343        C350   1.252       .  A
O344       Al348   1.788       .  S
O345        C346   1.263       .  A
C346       C2758   1.486       .  S
C347       C2429   1.484       .  S
C350       C2397   1.466       .  S
C351        O352   1.256       .  A
C351       C2374   1.477       .  S
O353        C368   1.254       .  A
O353       Al361   1.872       .  S
C354        O364   1.264       .  A
C354        O355   1.270       .  A
C354       C2790   1.471       .  S
O355       Al357   1.936       .  S
O356        C358   1.260       .  A
O356       Al357   1.894       .  S
Al357       O365   1.914       .  S
Al357       O367   1.913       .  S
Al357       O366   1.789       .  S
C358        O371   1.263       .  A
C358       C3302   1.506       .  S
O359        C369   1.255       .  A
O359       Al361   1.905       .  S
O360        C373   1.261       .  A
O360       Al370   1.870       .  S
Al361       O374   1.952       .  S
Al361       O371   1.925       .  S
Al361       O366   1.791       .  S
O362        C369   1.255       .  A
O362       Al370   1.894       .  S
O363        C372   1.253       .  A
O363       Al370   1.890       .  S
O364       Al370   1.880       .  S
O365        C372   1.257       .  A
O366       Al370   1.782       .  S
O367        C368   1.263       .  A
C368       C2301   1.476       .  S
C369       C2342   1.478       .  S
C372       C2685   1.477       .  S
C373        O374   1.272       .  A
C373       C2525   1.476       .  S
O375        C390   1.262       .  A
O375       Al383   1.911       .  S
C376        O386   1.260       .  A
C376        O377   1.262       .  A
C376       C2333   1.464       .  S
O377       Al379   1.905       .  S
O378        C380   1.259       .  A
O378       Al379   1.885       .  S
Al379       O387   1.894       .  S
Al379       O389   1.895       .  S
Al379       O388   1.768       .  S
C380        O393   1.265       .  A
C380       C2502   1.481       .  S
O381        C391   1.260       .  A
O381       Al383   1.896       .  S
O382        C395   1.260       .  A
O382       Al392   1.879       .  S
Al383       O396   1.920       .  S
Al383       O393   1.924       .  S
Al383       O388   1.781       .  S
O384        C391   1.263       .  A
O384       Al392   1.914       .  S
O385        C394   1.262       .  A
O385       Al392   1.918       .  S
O386       Al392   1.903       .  S
O387        C394   1.261       .  A
O388       Al392   1.780       .  S
O389        C390   1.259       .  A
C390       C2406   1.477       .  S
C391       C2278   1.483       .  S
C394       C2854   1.492       .  S
C395        O396   1.265       .  A
C395       C2246   1.484       .  S
O397        C412   1.255   1_554  A
O397       Al405   1.867       .  S
C398        O408   1.265       .  A
C398        O399   1.272       .  A
C398       C2141   1.473       .  S
O399       Al401   1.941       .  S
O400        C402   1.255       .  A
O400       Al401   1.877       .  S
Al401       O409   1.907       .  S
Al401       O411   1.921       .  S
Al401       O410   1.788       .  S
C402        O415   1.264       .  A
C402       C2077   1.487       .  S
O403        C413   1.258       .  A
O403       Al405   1.915       .  S
O404        C417   1.262       .  A
O404       Al414   1.879       .  S
Al405       O418   1.958       .  S
Al405       O415   1.927       .  S
Al405       O410   1.791       .  S
O406        C413   1.255       .  A
O406       Al414   1.900       .  S
O407        C416   1.253       .  A
O407       Al414   1.885       .  S
O408       Al414   1.882       .  S
O409        C416   1.255       .  A
O410       Al414   1.776       .  S
O411        C412   1.264   1_554  A
C412       C2470   1.479       .  S
C413       C2173   1.488       .  S
C416       C2118   1.476       .  S
C417        O418   1.274       .  A
C417       C2214   1.478       .  S
O419        C434   1.262       .  A
O419       Al427   1.908       .  S
C420        O430   1.263       .  A
C420        O421   1.263       .  A
C420       C2182   1.474       .  S
O421       Al423   1.910       .  S
O422        C424   1.259       .  A
O422       Al423   1.890       .  S
Al423       O431   1.889       .  S
Al423       O433   1.906       .  S
Al423       O432   1.771       .  S
C424        O437   1.262       .  A
C424       C2013   1.477       .  S
O425        C435   1.261       .  A
O425       Al427   1.893       .  S
O426        C439   1.262       .  A
O426       Al436   1.891       .  S
Al427       O440   1.915       .  S
Al427       O437   1.918       .  S
Al427       O432   1.782       .  S
O428        C435   1.263       .  A
O428       Al436   1.916       .  S
O429        C438   1.263       .  A
O429       Al436   1.919       .  S
O430       Al436   1.911       .  S
O431        C438   1.258       .  A
O432       Al436   1.779       .  S
O433        C434   1.264       .  A
C434       C2045   1.480       .  S
C435       C4221   1.475       .  S
C438       C1981   1.480       .  S
C439        O440   1.262       .  A
C439       C2237   1.478       .  S
O441        C456   1.260       .  A
O441       Al449   1.897       .  S
C442        O452   1.263       .  A
C442        O443   1.261       .  A
C442       C1958   1.467       .  S
O443       Al445   1.905       .  S
O444        C446   1.258       .  A
O444       Al445   1.885       .  S
Al445       O453   1.879       .  S
Al445       O455   1.909       .  S
Al445       O454   1.765       .  S
C446        O459   1.264       .  A
C446       C2150   1.476       .  S
O447        C457   1.258       .  A
O447       Al449   1.885       .  S
O448        C461   1.262       .  A
O448       Al458   1.897       .  S
Al449       O462   1.918       .  S
Al449       O459   1.924       .  S
Al449       O454   1.780       .  S
O450        C457   1.264       .  A
O450       Al458   1.911       .  S
O451        C460   1.263       .  A
O451       Al458   1.928       .  S
O452       Al458   1.912       .  S
O453        C460   1.259       .  A
O454       Al458   1.780       .  S
O455        C456   1.264       .  A
C456       C1990   1.475       .  S
C457       C3526   1.468       .  S
C460       C1917   1.474       .  S
C461        O462   1.266       .  A
C461       C2365   1.490       .  S
O463        C478   1.265   1_554  A
O463       Al471   1.924       .  S
C464        O474   1.261       .  A
C464        O465   1.261       .  A
C464       C1821   1.467       .  S
O465       Al467   1.908       .  S
O466        C468   1.268       .  A
O466       Al467   1.931       .  S
Al467       O475   1.943       .  S
Al467       O477   1.904       .  S
Al467       O476   1.780       .  S
C468        O481   1.260       .  A
C468       C1885   1.494       .  S
O469        C479   1.266       .  A
O469       Al471   1.932       .  S
O470        C483   1.262       .  A
O470       Al480   1.908       .  S
Al471       O484   1.892       .  S
Al471       O481   1.889       .  S
Al471       O476   1.780       .  S
O472        C479   1.257       .  A
O472       Al480   1.886       .  S
O473        C482   1.259       .  A
O473       Al480   1.883       .  S
O474       Al480   1.906       .  S
O475        C482   1.266       .  A
O476       Al480   1.771       .  S
O477        C478   1.264   1_554  A
C478       C2598   1.491       .  S
C479       C1949   1.493       .  S
C482       C1853   1.498       .  S
C483        O484   1.260       .  A
C483       C2109   1.464       .  S
O485        C500   1.257   1_554  A
O485       Al493   1.880       .  S
C486        O496   1.263       .  A
C486        O487   1.270       .  A
C486       C2022   1.467       .  S
O487       Al489   1.937       .  S
O488        C490   1.260       .  A
O488       Al489   1.883       .  S
Al489       O497   1.921       .  S
Al489       O499   1.914   1_554  S
Al489       O498   1.784       .  S
C490        O503   1.264       .  A
C490       C1789   1.498       .  S
O491        C501   1.258       .  A
O491       Al493   1.914       .  S
O492        C505   1.262       .  A
O492       Al502   1.879       .  S
Al493       O506   1.951       .  S
Al493       O503   1.929       .  S
Al493       O498   1.789       .  S
O494        C501   1.256       .  A
O494       Al502   1.905       .  S
O495        C504   1.257       .  A
O495       Al502   1.900       .  S
O496       Al502   1.882       .  S
O497        C504   1.259       .  A
O498       Al502   1.772       .  S
O499        C500   1.262       .  A
C500       C2310   1.476       .  S
C501       C1766   1.489       .  S
C504       C2205   1.488       .  S
C505        O506   1.273       .  A
C505       C1862   1.472       .  S
O507        C522   1.258       .  A
O507       Al515   1.888       .  S
C508        O518   1.265       .  A
C508        O509   1.265       .  A
C508       C1757   1.476       .  S
O509       Al511   1.915       .  S
O510        C512   1.258       .  A
O510       Al511   1.888       .  S
Al511       O519   1.889       .  S
Al511       O521   1.908       .  S
Al511       O520   1.773       .  S
C512        O525   1.260       .  A
C512       C1830   1.474       .  S
O513        C523   1.257       .  A
O513       Al515   1.878       .  S
O514        C527   1.263       .  A
O514       Al524   1.903       .  S
Al515       O528   1.918       .  S
Al515       O525   1.914       .  S
Al515       O520   1.788       .  S
O516        C523   1.263       .  A
O516       Al524   1.914       .  S
O517        C526   1.261       .  A
O517       Al524   1.920       .  S
O518       Al524   1.916       .  S
O519        C526   1.256       .  A
O520       Al524   1.788       .  S
O521        C522   1.264       .  A
C522       C1926   1.481       .  S
C523       C3709   1.466       .  S
C526       C2054   1.486       .  S
C527        O528   1.264       .  A
C527       C2726   1.486       .  S
O529        C544   1.258       .  A
O529       Al537   1.878       .  S
C530        O540   1.262       .  A
C530        O531   1.270       .  A
C530       C1629   1.470       .  S
O531       Al533   1.941       .  S
O532        C534   1.258       .  A
O532       Al533   1.886       .  S
Al533       O541   1.909       .  S
Al533       O543   1.920       .  S
Al533       O542   1.788       .  S
C534        O547   1.263       .  A
C534       C4038   1.481       .  S
O535        C545   1.261       .  A
O535       Al537   1.915       .  S
O536        C549   1.260   1_655  A
O536       Al546   1.877       .  S
Al537       O550   1.940   1_655  S
Al537       O547   1.922       .  S
Al537       O542   1.788       .  S
O538        C545   1.256       .  A
O538       Al546   1.898       .  S
O539        C548   1.255       .  A
O539       Al546   1.896       .  S
O540       Al546   1.877       .  S
O541        C548   1.257       .  A
O542       Al546   1.776       .  S
O543        C544   1.264       .  A
C544       C1606   1.478       .  S
C545       C1661   1.487       .  S
C548       C1693   1.479       .  S
C549        O550   1.269       .  A
C549       C1734   1.466       .  S
O551        C566   1.260       .  A
O551       Al559   1.898       .  S
C552        O562   1.261       .  A
C552        O553   1.263       .  A
C552       C1670   1.466       .  S
O553       Al555   1.912       .  S
O554        C556   1.254       .  A
O554       Al555   1.873       .  S
Al555       O563   1.881       .  S
Al555       O565   1.913       .  S
Al555       O564   1.765       .  S
C556        O569   1.265       .  A
C556       C1510   1.482       .  S
O557        C567   1.259       .  A
O557       Al559   1.888       .  S
O558        C571   1.262       .  A
O558       Al568   1.895       .  S
Al559       O572   1.932       .  S
Al559       O569   1.939       .  S
Al559       O564   1.783       .  S
O560        C567   1.267       .  A
O560       Al568   1.926       .  S
O561        C570   1.264       .  A
O561       Al568   1.933       .  S
O562       Al568   1.902       .  S
O563        C570   1.256       .  A
O564       Al568   1.781       .  S
O565        C566   1.264       .  A
C566       C1565   1.470       .  S
C567       C2877   1.482       .  S
C570       C1542   1.479       .  S
C571        O572   1.267       .  A
C571       C1478   1.481       .  S
O573        C588   1.256   1_565  A
O573       Al581   1.874       .  S
C574        O584   1.265       .  A
C574        O575   1.268       .  A
C574       C1501   1.474       .  S
O575       Al577   1.921       .  S
O576        C578   1.257       .  A
O576       Al577   1.884       .  S
Al577       O585   1.915       .  S
Al577       O587   1.907       .  S
Al577       O586   1.796       .  S
C578        O591   1.258       .  A
C578       C3581   1.480       .  S
O579        C589   1.255       .  A
O579       Al581   1.898       .  S
O580        C593   1.262       .  A
O580       Al590   1.889   1_565  S
Al581       O594   1.936       .  S
Al581       O591   1.904   1_565  S
Al581       O586   1.797   1_565  S
O582        C589   1.253       .  A
O582       Al590   1.896   1_565  S
O583        C592   1.250       .  A
O583       Al590   1.878       .  S
O584       Al590   1.892       .  S
O585        C592   1.256       .  A
O586       Al590   1.784       .  S
O587        C588   1.261       .  A
C588       C1382   1.467       .  S
C589       C1405   1.486       .  S
C592       C1725   1.478       .  S
C593        O594   1.268       .  A
C593       C1437   1.470       .  S
O595        C610   1.262       .  A
O595       Al603   1.908   1_545  S
C596        O606   1.260       .  A
C596        O597   1.261       .  A
C596       C1309   1.471       .  S
O597       Al599   1.900       .  S
O598        C600   1.259       .  A
O598       Al599   1.888       .  S
Al599       O607   1.884       .  S
Al599       O609   1.901       .  S
Al599       O608   1.772       .  S
C600        O613   1.263   1_565  A
C600       C1638   1.475   1_565  S
O601        C611   1.260       .  A
O601       Al603   1.892       .  S
O602        C615   1.262       .  A
O602       Al612   1.902       .  S
Al603       O616   1.926       .  S
Al603       O613   1.922   1_565  S
Al603       O608   1.780       .  S
O604        C611   1.261       .  A
O604       Al612   1.914       .  S
O605        C614   1.261       .  A
O605       Al612   1.917       .  S
O606       Al612   1.907       .  S
O607        C614   1.260       .  A
O608       Al612   1.785       .  S
O609        C610   1.262   1_565  A
C610       C1533   1.485       .  S
C611       C2269   1.487       .  S
C614       C1341   1.484       .  S
C615        O616   1.267       .  A
C615       C1277   1.498       .  S
O617        C632   1.258       .  A
O617       Al625   1.881       .  S
C618        O628   1.260       .  A
C618        O619   1.270       .  A
C618       C1245   1.483       .  S
O619       Al621   1.945       .  S
O620        C622   1.256       .  A
O620       Al621   1.869       .  S
Al621       O629   1.894       .  S
Al621       O631   1.935       .  S
Al621       O630   1.779       .  S
C622        O635   1.266       .  A
C622       C3750   1.477       .  S
O623        C633   1.256       .  A
O623       Al625   1.890       .  S
O624        C637   1.258       .  A
O624       Al634   1.873       .  S
Al625       O638   1.952       .  S
Al625       O635   1.931       .  S
Al625       O630   1.783       .  S
O626        C633   1.262       .  A
O626       Al634   1.922       .  S
O627        C636   1.262       .  A
O627       Al634   1.909       .  S
O628       Al634   1.881       .  S
O629        C636   1.256       .  A
O630       Al634   1.772       .  S
O631        C632   1.266       .  A
C632       C1213   1.487       .  S
C633       C1318   1.484       .  S
C636       C1446   1.477       .  S
C637        O638   1.271       .  A
C637       C1702   1.474       .  S
O639        C654   1.260       .  A
O639       Al647   1.902       .  S
C640        O650   1.260       .  A
C640        O641   1.264       .  A
C640       C1414   1.462       .  S
O641       Al643   1.912       .  S
O642        C644   1.259       .  A
O642       Al643   1.881   1_655  S
Al643       O651   1.878       .  S
Al643       O653   1.900   1_455  S
Al643       O652   1.765       .  S
C644        O657   1.267       .  A
C644       C1254   1.492       .  S
O645        C655   1.263   1_655  A
O645       Al647   1.901       .  S
O646        C659   1.260       .  A
O646       Al656   1.880       .  S
Al647       O660   1.931       .  S
Al647       O657   1.941       .  S
Al647       O652   1.777   1_655  S
O648        C655   1.262       .  A
O648       Al656   1.913       .  S
O649        C658   1.265       .  A
O649       Al656   1.936       .  S
O650       Al656   1.896       .  S
O651        C658   1.258       .  A
O652       Al656   1.778       .  S
O653        C654   1.260       .  A
C654       C1350   1.470       .  S
C655       C2438   1.491       .  S
C658       C1574   1.489       .  S
C659        O660   1.269   1_455  A
C659       C1181   1.483   1_455  S
O661        C676   1.257       .  A
O661       Al669   1.890       .  S
C662        O672   1.263       .  A
C662        O663   1.262       .  A
C662       C1053   1.471       .  S
O663       Al665   1.902       .  S
O664        C666   1.259       .  A
O664       Al665   1.891       .  S
Al665       O673   1.886       .  S
Al665       O675   1.902       .  S
Al665       O674   1.771       .  S
C666        O679   1.264       .  A
C666       C1117   1.491       .  S
O667        C677   1.257       .  A
O667       Al669   1.880       .  S
O668        C681   1.262       .  A
O668       Al678   1.892       .  S
Al669       O682   1.908       .  S
Al669       O679   1.917       .  S
Al669       O674   1.781       .  S
O670        C677   1.265       .  A
O670       Al678   1.919       .  S
O671        C680   1.265       .  A
O671       Al678   1.933       .  S
O672       Al678   1.912       .  S
O673        C680   1.259       .  A
O674       Al678   1.782       .  S
O675        C676   1.260       .  A
C676       C1149   1.463   1_655  S
C677       C2909   1.479       .  S
C680       C1085   1.481       .  S
C681        O682   1.262       .  A
C681       C1190   1.470       .  S
O683        C698   1.258   1_545  A
O683       Al691   1.874       .  S
C684        O694   1.264       .  A
C684        O685   1.268       .  A
C684       C1126   1.487       .  S
O685       Al687   1.929       .  S
O686        C688   1.257       .  A
O686       Al687   1.879       .  S
Al687       O695   1.913       .  S
Al687       O697   1.915       .  S
Al687       O696   1.785       .  S
C688        O701   1.262       .  A
C688       C2086   1.484       .  S
O689        C699   1.260       .  A
O689       Al691   1.908       .  S
O690        C703   1.261       .  A
O690       Al700   1.881   1_545  S
Al691       O704   1.945       .  S
Al691       O701   1.925   1_545  S
Al691       O696   1.793   1_545  S
O692        C699   1.258       .  A
O692       Al700   1.905   1_545  S
O693        C702   1.257       .  A
O693       Al700   1.898       .  S
O694       Al700   1.885       .  S
O695        C702   1.258       .  A
O696       Al700   1.775       .  S
O697        C698   1.264       .  A
C698       C1373   1.471       .  S
C699        C989   1.490       .  S
C702        C966   1.491       .  S
C703        O704   1.269       .  A
C703       C1021   1.470       .  S
O705        C720   1.261       .  A
O705       Al713   1.904       .  S
C706        O716   1.262       .  A
C706        O707   1.259       .  A
C706        C998   1.475       .  S
O707       Al709   1.900       .  S
O708        C710   1.259       .  A
O708       Al709   1.890       .  S
Al709       O717   1.875       .  S
Al709       O719   1.901       .  S
Al709       O718   1.773       .  S
C710        O723   1.267       .  A
C710        C902   1.493       .  S
O711        C721   1.261       .  A
O711       Al713   1.890       .  S
O712        C725   1.262       .  A
O712       Al722   1.905       .  S
Al713       O726   1.922       .  S
Al713       O723   1.933       .  S
Al713       O718   1.781       .  S
O714        C721   1.265       .  A
O714       Al722   1.920       .  S
O715        C724   1.265       .  A
O715       Al722   1.926       .  S
O716       Al722   1.914       .  S
O717        C724   1.259       .  A
O718       Al722   1.783       .  S
O719        C720   1.259       .  A
C720        C934   1.475       .  S
C721       C3462   1.486       .  S
C724       C1158   1.482       .  S
C725        O726   1.263       .  A
C725       C1469   1.498       .  S
O727        C742   1.259       .  A
O727       Al735   1.901   1_565  S
C728        O738   1.264       .  A
C728        O729   1.262       .  A
C728        C861   1.464       .  S
O729       Al731   1.905       .  S
O730        C732   1.257   1_545  A
O730       Al731   1.883       .  S
Al731       O739   1.891       .  S
Al731       O741   1.897   1_545  S
Al731       O740   1.773       .  S
C732        O745   1.269       .  A
C732        C829   1.496       .  S
O733        C743   1.261       .  A
O733       Al735   1.908       .  S
O734        C747   1.262       .  A
O734       Al744   1.890       .  S
Al735       O748   1.936       .  S
Al735       O745   1.939   1_545  S
Al735       O740   1.779       .  S
O736        C743   1.263       .  A
O736       Al744   1.917       .  S
O737        C746   1.262       .  A
O737       Al744   1.924       .  S
O738       Al744   1.908       .  S
O739        C746   1.259       .  A
O740       Al744   1.781       .  S
O741        C742   1.259       .  A
C742       C1094   1.478       .  S
C743       C3078   1.493       .  S
C746        C925   1.488       .  S
C747        O748   1.270       .  A
C747       C1286   1.490       .  S
O749        C764   1.258       .  A
O749       Al757   1.872       .  S
C750        O760   1.264       .  A
C750        O751   1.276       .  A
C750        C893   1.495       .  S
O751       Al753   1.959       .  S
O752        C754   1.258       .  A
O752       Al753   1.886       .  S
Al753       O761   1.916       .  S
Al753       O763   1.930       .  S
Al753       O762   1.782       .  S
C754        O767   1.261   1_455  A
C754       C1894   1.483       .  S
O755        C765   1.258       .  A
O755       Al757   1.912       .  S
O756        C769   1.262       .  A
O756       Al766   1.878   1_655  S
Al757       O770   1.949       .  S
Al757       O767   1.914       .  S
Al757       O762   1.784   1_655  S
O758        C765   1.253       .  A
O758       Al766   1.897   1_655  S
O759        C768   1.253       .  A
O759       Al766   1.887       .  S
O760       Al766   1.869       .  S
O761        C768   1.256       .  A
O762       Al766   1.775       .  S
O763        C764   1.267   1_455  A
C764       C1597   1.486       .  S
C765        C870   1.491       .  S
C768       C1030   1.482       .  S
C769        O770   1.273       .  A
C769        C806   1.469       .  S
O771        C786   1.257       .  A
O771       Al779   1.879       .  S
C772        O782   1.264       .  A
C772        O773   1.267       .  A
C772        C838   1.494       .  S
O773       Al775   1.928       .  S
O774        C776   1.257       .  A
O774       Al775   1.881       .  S
Al775       O783   1.904       .  S
Al775       O785   1.919       .  S
Al775       O784   1.777       .  S
C776        O789   1.268       .  A
C776       C1798   1.485       .  S
O777        C787   1.256       .  A
O777       Al779   1.894       .  S
O778        C791   1.258       .  A
O778       Al788   1.871       .  S
Al779       O792   1.966       .  S
Al779       O789   1.948       .  S
Al779       O784   1.785       .  S
O780        C787   1.260       .  A
O780       Al788   1.903       .  S
O781        C790   1.257       .  A
O781       Al788   1.901       .  S
O782       Al788   1.890       .  S
O783        C790   1.259       .  A
O784       Al788   1.774       .  S
O785        C786   1.263       .  A
C786       C1222   1.471       .  S
C787       C1062   1.483       .  S
C790        C797   1.478       .  S
C791        O792   1.273       .  A
C791        C957   1.475       .  S
C793        C794   1.401       .  A
C793        C798   1.400       .  A
C793        H803   1.085       .  S
C794        C799   1.480   1_565  S
C794        C795   1.410       .  A
C795        C796   1.405       .  A
C795        C800   1.506       .  S
C796        C797   1.405       .  A
C796        H801   1.084       .  S
C797        C798   1.418       .  A
C798        C802   1.510       .  S
C799        C804   1.411       .  A
C799        C808   1.402       .  A
C800        H816   1.109   1_565  S
C800        H817   1.110       .  S
C800        H818   1.111       .  S
C802        H813   1.109       .  S
C802        H814   1.111       .  S
C802        H815   1.109       .  S
C804        C805   1.405       .  A
C804        C809   1.506       .  S
C805        C806   1.405       .  A
C805        H810   1.085       .  S
C806        C807   1.414       .  A
C807        C808   1.399       .  A
C807        C811   1.509       .  S
C808        H812   1.085       .  S
C809        H819   1.111       .  S
C809        H820   1.109       .  S
C809        H821   1.110       .  S
C811        H822   1.111       .  S
C811        H823   1.105       .  S
C811        H824   1.110       .  S
C825        C826   1.397       .  A
C825        C830   1.403       .  A
C825        H835   1.086   1_556  S
C826        C831   1.480   1_556  S
C826        C827   1.407       .  A
C827        C828   1.405       .  A
C827        C832   1.506       .  S
C828        C829   1.411       .  A
C828        H833   1.084       .  S
C829        C830   1.426       .  A
C830        C834   1.510   1_565  S
C831        C836   1.410       .  A
C831        C840   1.398       .  A
C832        H848   1.110       .  S
C832        H849   1.109       .  S
C832        H850   1.111       .  S
C834        H845   1.111       .  S
C834        H846   1.107       .  S
C834        H847   1.109       .  S
C836        C837   1.402       .  A
C836        C841   1.509   1_554  S
C837        C838   1.409       .  A
C837        H842   1.084       .  S
C838        C839   1.424       .  A
C839        C840   1.406       .  A
C839        C843   1.508       .  S
C840        H844   1.084       .  S
C841        H851   1.111       .  S
C841        H852   1.110       .  S
C841        H853   1.109       .  S
C843        H854   1.110       .  S
C843        H855   1.111       .  S
C843        H856   1.110       .  S
C857        C858   1.403       .  A
C857        C862   1.404       .  A
C857        H867   1.085       .  S
C858        C863   1.477   1_556  S
C858        C859   1.412       .  A
C859        C860   1.399       .  A
C859        C864   1.508       .  S
C860        C861   1.401       .  A
C860        H865   1.085       .  S
C861        C862   1.410       .  A
C862        C866   1.508       .  S
C863        C868   1.407       .  A
C863        C872   1.396       .  A
C864        H880   1.110       .  S
C864        H881   1.110       .  S
C864        H882   1.111       .  S
C866        H877   1.111       .  S
C866        H878   1.110       .  S
C866        H879   1.110       .  S
C868        C869   1.407       .  A
C868        C873   1.505       .  S
C869        C870   1.411       .  A
C869        H874   1.083       .  S
C870        C871   1.426       .  A
C871        C872   1.397       .  A
C871        C875   1.511       .  S
C872        H876   1.084   1_554  S
C873        H883   1.111       .  S
C873        H884   1.110       .  S
C873        H885   1.110   1_554  S
C875        H886   1.110       .  S
C875        H887   1.111       .  S
C875        H888   1.111       .  S
C889        C890   1.402       .  A
C889        C894   1.411       .  A
C889        H899   1.083       .  S
C890        C895   1.481   1_554  S
C890        C891   1.409       .  A
C891        C892   1.398       .  A
C891        C896   1.511   1_554  S
C892        C893   1.411       .  A
C892        H897   1.083       .  S
C893        C894   1.422       .  A
C894        C898   1.507       .  S
C895        C900   1.408       .  A
C895        C904   1.399       .  A
C896        H912   1.111       .  S
C896        H913   1.108       .  S
C896        H914   1.111       .  S
C898        H909   1.110       .  S
C898        H910   1.111       .  S
C898        H911   1.110       .  S
C900        C901   1.404       .  A
C900        C905   1.508       .  S
C901        C902   1.410       .  A
C901        H906   1.084       .  S
C902        C903   1.423       .  A
C903        C904   1.405       .  A
C903        C907   1.509       .  S
C904        H908   1.085   1_556  S
C905        H915   1.111       .  S
C905        H916   1.110       .  S
C905        H917   1.109       .  S
C907        H918   1.110       .  S
C907        H919   1.109       .  S
C907        H920   1.111       .  S
C921        C922   1.398       .  A
C921        C926   1.405       .  A
C921        H931   1.085       .  S
C922        C927   1.476   1_655  S
C922        C923   1.409       .  A
C923        C924   1.401       .  A
C923        C928   1.508       .  S
C924        C925   1.407       .  A
C924        H929   1.085       .  S
C925        C926   1.423       .  A
C926        C930   1.508       .  S
C927        C932   1.408       .  A
C927        C936   1.399       .  A
C928        H944   1.110       .  S
C928        H945   1.109       .  S
C928        H946   1.111       .  S
C930        H941   1.111       .  S
C930        H942   1.110       .  S
C930        H943   1.110       .  S
C932        C933   1.405       .  A
C932        C937   1.505       .  S
C933        C934   1.406       .  A
C933        H938   1.083       .  S
C934        C935   1.418       .  A
C935        C936   1.399       .  A
C935        C939   1.511       .  S
C936        H940   1.084       .  S
C937        H947   1.111       .  S
C937        H948   1.110       .  S
C937        H949   1.110       .  S
C939        H950   1.111       .  S
C939        H951   1.111       .  S
C939        H952   1.109       .  S
C953        C954   1.403       .  A
C953        C958   1.405       .  A
C953        H963   1.084       .  S
C954        C959   1.489       .  S
C954        C955   1.414       .  A
C955        C956   1.407       .  A
C955        C960   1.507       .  S
C956        C957   1.402       .  A
C956        H961   1.084       .  S
C957        C958   1.415       .  A
C958        C962   1.508       .  S
C959        C964   1.412       .  A
C959        C968   1.403       .  A
C960        H976   1.110       .  S
C960        H977   1.111       .  S
C960        H978   1.111       .  S
C962        H973   1.109       .  S
C962        H974   1.110       .  S
C962        H975   1.110       .  S
C964        C965   1.402   1_655  A
C964        C969   1.509       .  S
C965        C966   1.407       .  A
C965        H970   1.084       .  S
C966        C967   1.419       .  A
C967        C968   1.411   1_455  A
C967        C971   1.506       .  S
C968        H972   1.084       .  S
C969        H979   1.111       .  S
C969        H980   1.110       .  S
C969        H981   1.111       .  S
C971        H982   1.111       .  S
C971        H983   1.110       .  S
C971        H984   1.110       .  S
C985        C986   1.397   1_554  A
C985        C990   1.398       .  A
C985        H995   1.085   1_554  S
C986        C991   1.481       .  S
C986        C987   1.409   1_556  A
C987        C988   1.410       .  A
C987        C992   1.505   1_554  S
C988        C989   1.411       .  A
C988        H993   1.084       .  S
C989        C990   1.422       .  A
C990        C994   1.510       .  S
C991        C996   1.411       .  A
C991       C1000   1.403       .  A
C992       H1008   1.110       .  S
C992       H1009   1.109       .  S
C992       H1010   1.111   1_556  S
C994       H1005   1.110       .  S
C994       H1006   1.111       .  S
C994       H1007   1.109       .  S
C996        C997   1.402       .  A
C996       C1001   1.509       .  S
C997        C998   1.405       .  A
C997       H1002   1.084       .  S
C998        C999   1.415       .  A
C999       C1000   1.406       .  A
C999       C1003   1.508       .  S
C1000      H1004   1.085       .  S
C1001      H1011   1.111       .  S
C1001      H1012   1.110       .  S
C1001      H1013   1.109       .  S
C1003      H1014   1.110       .  S
C1003      H1015   1.106       .  S
C1003      H1016   1.110       .  S
C1017      C1018   1.403       .  A
C1017      C1022   1.402       .  A
C1017      H1027   1.083       .  S
C1018      C1023   1.485       .  S
C1018      C1019   1.415       .  A
C1019      C1020   1.404       .  A
C1019      C1024   1.507       .  S
C1020      C1021   1.400       .  A
C1020      H1025   1.084       .  S
C1021      C1022   1.413       .  A
C1022      C1026   1.508       .  S
C1023      C1028   1.412       .  A
C1023      C1032   1.403       .  A
C1024      H1040   1.109       .  S
C1024      H1041   1.110       .  S
C1024      H1042   1.111       .  S
C1026      H1037   1.110       .  S
C1026      H1038   1.110       .  S
C1026      H1039   1.110       .  S
C1028      C1029   1.397       .  A
C1028      C1033   1.510       .  S
C1029      C1030   1.406       .  A
C1029      H1034   1.084       .  S
C1030      C1031   1.421       .  A
C1031      C1032   1.409       .  A
C1031      C1035   1.508       .  S
C1032      H1036   1.084       .  S
C1033      H1043   1.111       .  S
C1033      H1044   1.109       .  S
C1033      H1045   1.111       .  S
C1035      H1046   1.110       .  S
C1035      H1047   1.102       .  S
C1035      H1048   1.111       .  S
C1049      C1050   1.398       .  A
C1049      C1054   1.396       .  A
C1049      H1059   1.085       .  S
C1050      C1055   1.474       .  S
C1050      C1051   1.410       .  A
C1051      C1052   1.406       .  A
C1051      C1056   1.505       .  S
C1052      C1053   1.404       .  A
C1052      H1057   1.085       .  S
C1053      C1054   1.415       .  A
C1054      C1058   1.507       .  S
C1055      C1060   1.409   1_556  A
C1055      C1064   1.399   1_556  A
C1056      H1072   1.111       .  S
C1056      H1073   1.110       .  S
C1056      H1074   1.111       .  S
C1058      H1069   1.110       .  S
C1058      H1070   1.111       .  S
C1058      H1071   1.106       .  S
C1060      C1061   1.395       .  A
C1060      C1065   1.509   1_554  S
C1061      C1062   1.406       .  A
C1061      H1066   1.084       .  S
C1062      C1063   1.421       .  A
C1063      C1064   1.407       .  A
C1063      C1067   1.507       .  S
C1064      H1068   1.083   1_554  S
C1065      H1075   1.111   1_556  S
C1065      H1076   1.110       .  S
C1065      H1077   1.109       .  S
C1067      H1078   1.110       .  S
C1067      H1079   1.110       .  S
C1067      H1080   1.111       .  S
C1081      C1082   1.400       .  A
C1081      C1086   1.401       .  A
C1081      H1091   1.085       .  S
C1082      C1087   1.478       .  S
C1082      C1083   1.409       .  A
C1083      C1084   1.404       .  A
C1083      C1088   1.506       .  S
C1084      C1085   1.406       .  A
C1084      H1089   1.084       .  S
C1085      C1086   1.416       .  A
C1086      C1090   1.508       .  S
C1087      C1092   1.411       .  A
C1087      C1096   1.403       .  A
C1088      H1104   1.110       .  S
C1088      H1105   1.110       .  S
C1088      H1106   1.111       .  S
C1090      H1101   1.110       .  S
C1090      H1102   1.111       .  S
C1090      H1103   1.108       .  S
C1092      C1093   1.397       .  A
C1092      C1097   1.510       .  S
C1093      C1094   1.404       .  A
C1093      H1098   1.086       .  S
C1094      C1095   1.416       .  A
C1095      C1096   1.408       .  A
C1095      C1099   1.507       .  S
C1096      H1100   1.083       .  S
C1097      H1107   1.111       .  S
C1097      H1108   1.110       .  S
C1097      H1109   1.109       .  S
C1099      H1110   1.110       .  S
C1099      H1111   1.110       .  S
C1099      H1112   1.110       .  S
C1113      C1114   1.398   1_655  A
C1113      C1118   1.402       .  A
C1113      H1123   1.085   1_556  S
C1114      C1119   1.477   1_556  S
C1114      C1115   1.406       .  A
C1115      C1116   1.403       .  A
C1115      C1120   1.506       .  S
C1116      C1117   1.411   1_455  A
C1116      H1121   1.084       .  S
C1117      C1118   1.422       .  A
C1118      C1122   1.508       .  S
C1119      C1124   1.410       .  A
C1119      C1128   1.399       .  A
C1120      H1136   1.110       .  S
C1120      H1137   1.109       .  S
C1120      H1138   1.111       .  S
C1122      H1133   1.111       .  S
C1122      H1134   1.110       .  S
C1122      H1135   1.110       .  S
C1124      C1125   1.400       .  A
C1124      C1129   1.509   1_554  S
C1125      C1126   1.407       .  A
C1125      H1130   1.084       .  S
C1126      C1127   1.422       .  A
C1127      C1128   1.406       .  A
C1127      C1131   1.508       .  S
C1128      H1132   1.084       .  S
C1129      H1139   1.111       .  S
C1129      H1140   1.110       .  S
C1129      H1141   1.109       .  S
C1131      H1142   1.110       .  S
C1131      H1143   1.110       .  S
C1131      H1144   1.111       .  S
C1145      C1146   1.400       .  A
C1145      C1150   1.397       .  A
C1145      H1155   1.085       .  S
C1146      C1151   1.472       .  S
C1146      C1147   1.410       .  A
C1147      C1148   1.403       .  A
C1147      C1152   1.506       .  S
C1148      C1149   1.402       .  A
C1148      H1153   1.086       .  S
C1149      C1150   1.413       .  A
C1150      C1154   1.511       .  S
C1151      C1156   1.409   1_565  A
C1151      C1160   1.400   1_565  A
C1152      H1168   1.110       .  S
C1152      H1169   1.109       .  S
C1152      H1170   1.111       .  S
C1154      H1165   1.111       .  S
C1154      H1166   1.111       .  S
C1154      H1167   1.109       .  S
C1156      C1157   1.397       .  A
C1156      C1161   1.510       .  S
C1157      C1158   1.406       .  A
C1157      H1162   1.085       .  S
C1158      C1159   1.420       .  A
C1159      C1160   1.405       .  A
C1159      C1163   1.508       .  S
C1160      H1164   1.084   1_545  S
C1161      H1171   1.111       .  S
C1161      H1172   1.111   1_545  S
C1161      H1173   1.108   1_545  S
C1163      H1174   1.110       .  S
C1163      H1175   1.110       .  S
C1163      H1176   1.111       .  S
C1177      C1178   1.399   1_455  A
C1177      C1182   1.404       .  A
C1177      H1187   1.085       .  S
C1178      C1183   1.475       .  S
C1178      C1179   1.407       .  A
C1179      C1180   1.399       .  A
C1179      C1184   1.506       .  S
C1180      C1181   1.407       .  A
C1180      H1185   1.084       .  S
C1181      C1182   1.421   1_655  A
C1182      C1186   1.509       .  S
C1183      C1188   1.408       .  A
C1183      C1192   1.401       .  A
C1184      H1200   1.110       .  S
C1184      H1201   1.110       .  S
C1184      H1202   1.111       .  S
C1186      H1197   1.111       .  S
C1186      H1198   1.109       .  S
C1186      H1199   1.111       .  S
C1188      C1189   1.400       .  A
C1188      C1193   1.506       .  S
C1189      C1190   1.404       .  A
C1189      H1194   1.085       .  S
C1190      C1191   1.416       .  A
C1191      C1192   1.401       .  A
C1191      C1195   1.510       .  S
C1192      H1196   1.085       .  S
C1193      H1203   1.111       .  S
C1193      H1204   1.110   1_655  S
C1193      H1205   1.110       .  S
C1195      H1206   1.111       .  S
C1195      H1207   1.106       .  S
C1195      H1208   1.110       .  S
C1209      C1210   1.400       .  A
C1209      C1214   1.405       .  A
C1209      H1219   1.083       .  S
C1210      C1215   1.482       .  S
C1210      C1211   1.408       .  A
C1211      C1212   1.405       .  A
C1211      C1216   1.506       .  S
C1212      C1213   1.408       .  A
C1212      H1217   1.082       .  S
C1213      C1214   1.418       .  A
C1214      C1218   1.506       .  S
C1215      C1220   1.413       .  A
C1215      C1224   1.400       .  A
C1216      H1232   1.111       .  S
C1216      H1233   1.110       .  S
C1216      H1234   1.110       .  S
C1218      H1229   1.111       .  S
C1218      H1230   1.110       .  S
C1218      H1231   1.108       .  S
C1220      C1221   1.404       .  A
C1220      C1225   1.507       .  S
C1221      C1222   1.403       .  A
C1221      H1226   1.085       .  S
C1222      C1223   1.414       .  A
C1223      C1224   1.403       .  A
C1223      C1227   1.508       .  S
C1224      H1228   1.084       .  S
C1225      H1235   1.111       .  S
C1225      H1236   1.110       .  S
C1225      H1237   1.110       .  S
C1227      H1238   1.110       .  S
C1227      H1239   1.108       .  S
C1227      H1240   1.110       .  S
C1241      C1242   1.400       .  A
C1241      C1246   1.403       .  A
C1241      H1251   1.083       .  S
C1242      C1247   1.482       .  S
C1242      C1243   1.410       .  A
C1243      C1244   1.405       .  A
C1243      C1248   1.506       .  S
C1244      C1245   1.407       .  A
C1244      H1249   1.084       .  S
C1245      C1246   1.419       .  A
C1246      C1250   1.510       .  S
C1247      C1252   1.409       .  A
C1247      C1256   1.402       .  A
C1248      H1264   1.110       .  S
C1248      H1265   1.109       .  S
C1248      H1266   1.111       .  S
C1250      H1261   1.109       .  S
C1250      H1262   1.111       .  S
C1250      H1263   1.108       .  S
C1252      C1253   1.400       .  A
C1252      C1257   1.509       .  S
C1253      C1254   1.410       .  A
C1253      H1258   1.083       .  S
C1254      C1255   1.419       .  A
C1255      C1256   1.409       .  A
C1255      C1259   1.506       .  S
C1256      H1260   1.083       .  S
C1257      H1267   1.111       .  S
C1257      H1268   1.110       .  S
C1257      H1269   1.109       .  S
C1259      H1270   1.110       .  S
C1259      H1271   1.110       .  S
C1259      H1272   1.111       .  S
C1273      C1274   1.402       .  A
C1273      C1278   1.410       .  A
C1273      H1283   1.084       .  S
C1274      C1279   1.489   1_565  S
C1274      C1275   1.409   1_565  A
C1275      C1276   1.403   1_545  A
C1275      C1280   1.507       .  S
C1276      C1277   1.409       .  A
C1276      H1281   1.085   1_565  S
C1277      C1278   1.423       .  A
C1278      C1282   1.508       .  S
C1279      C1284   1.411   1_545  A
C1279      C1288   1.401       .  A
C1280      H1296   1.109       .  S
C1280      H1297   1.110       .  S
C1280      H1298   1.111       .  S
C1282      H1293   1.111       .  S
C1282      H1294   1.111       .  S
C1282      H1295   1.110       .  S
C1284      C1285   1.407   1_565  A
C1284      C1289   1.506       .  S
C1285      C1286   1.407       .  A
C1285      H1290   1.085   1_545  S
C1286      C1287   1.421       .  A
C1287      C1288   1.407       .  A
C1287      C1291   1.509       .  S
C1288      H1292   1.081       .  S
C1289      H1299   1.111       .  S
C1289      H1300   1.110       .  S
C1289      H1301   1.110       .  S
C1291      H1302   1.111       .  S
C1291      H1303   1.110       .  S
C1291      H1304   1.110       .  S
C1305      C1306   1.398       .  A
C1305      C1310   1.396       .  A
C1305      H1315   1.085       .  S
C1306      C1311   1.478       .  S
C1306      C1307   1.412       .  A
C1307      C1308   1.408       .  A
C1307      C1312   1.506       .  S
C1308      C1309   1.405       .  A
C1308      H1313   1.084       .  S
C1309      C1310   1.414       .  A
C1310      C1314   1.508       .  S
C1311      C1316   1.413       .  A
C1311      C1320   1.400       .  A
C1312      H1328   1.110       .  S
C1312      H1329   1.109       .  S
C1312      H1330   1.111       .  S
C1314      H1325   1.110       .  S
C1314      H1326   1.110       .  S
C1314      H1327   1.105       .  S
C1316      C1317   1.400       .  A
C1316      C1321   1.510       .  S
C1317      C1318   1.404       .  A
C1317      H1322   1.084       .  S
C1318      C1319   1.420       .  A
C1319      C1320   1.407       .  A
C1319      C1323   1.508       .  S
C1320      H1324   1.085       .  S
C1321      H1331   1.111       .  S
C1321      H1332   1.111       .  S
C1321      H1333   1.108       .  S
C1323      H1334   1.110       .  S
C1323      H1335   1.109       .  S
C1323      H1336   1.111       .  S
C1337      C1338   1.399       .  A
C1337      C1342   1.405       .  A
C1337      H1347   1.084       .  S
C1338      C1343   1.473       .  S
C1338      C1339   1.408       .  A
C1339      C1340   1.397       .  A
C1339      C1344   1.508       .  S
C1340      C1341   1.406       .  A
C1340      H1345   1.083       .  S
C1341      C1342   1.422       .  A
C1342      C1346   1.509       .  S
C1343      C1348   1.408       .  A
C1343      C1352   1.400       .  A
C1344      H1360   1.110       .  S
C1344      H1361   1.109       .  S
C1344      H1362   1.111       .  S
C1346      H1357   1.111       .  S
C1346      H1358   1.107       .  S
C1346      H1359   1.110       .  S
C1348      C1349   1.405       .  A
C1348      C1353   1.505       .  S
C1349      C1350   1.405       .  A
C1349      H1354   1.084       .  S
C1350      C1351   1.415       .  A
C1351      C1352   1.397       .  A
C1351      C1355   1.511       .  S
C1352      H1356   1.084       .  S
C1353      H1363   1.111       .  S
C1353      H1364   1.110       .  S
C1353      H1365   1.109       .  S
C1355      H1366   1.111       .  S
C1355      H1367   1.111       .  S
C1355      H1368   1.109       .  S
C1369      C1370   1.401   1_545  A
C1369      C1374   1.401       .  A
C1369      H1379   1.085       .  S
C1370      C1375   1.480       .  S
C1370      C1371   1.413       .  A
C1371      C1372   1.402       .  A
C1371      C1376   1.507       .  S
C1372      C1373   1.403       .  A
C1372      H1377   1.085       .  S
C1373      C1374   1.415   1_565  A
C1374      C1378   1.507       .  S
C1375      C1380   1.411       .  A
C1375      C1384   1.403   1_565  A
C1376      H1392   1.109       .  S
C1376      H1393   1.110       .  S
C1376      H1394   1.111       .  S
C1378      H1389   1.111       .  S
C1378      H1390   1.110       .  S
C1378      H1391   1.107       .  S
C1380      C1381   1.401       .  A
C1380      C1385   1.507       .  S
C1381      C1382   1.402   1_565  A
C1381      H1386   1.084       .  S
C1382      C1383   1.413       .  A
C1383      C1384   1.402       .  A
C1383      C1387   1.508       .  S
C1384      H1388   1.084       .  S
C1385      H1395   1.111       .  S
C1385      H1396   1.109       .  S
C1385      H1397   1.110       .  S
C1387      H1398   1.110       .  S
C1387      H1399   1.106       .  S
C1387      H1400   1.111       .  S
C1401      C1402   1.398       .  A
C1401      C1406   1.398       .  A
C1401      H1411   1.084       .  S
C1402      C1407   1.474       .  S
C1402      C1403   1.405       .  A
C1403      C1404   1.405       .  A
C1403      C1408   1.505       .  S
C1404      C1405   1.410       .  A
C1404      H1409   1.082       .  S
C1405      C1406   1.422       .  A
C1406      C1410   1.510       .  S
C1407      C1412   1.412       .  A
C1407      C1416   1.403       .  A
C1408      H1424   1.110       .  S
C1408      H1425   1.109       .  S
C1408      H1426   1.111       .  S
C1410      H1421   1.111       .  S
C1410      H1422   1.109       .  S
C1410      H1423   1.109       .  S
C1412      C1413   1.398       .  A
C1412      C1417   1.508       .  S
C1413      C1414   1.399       .  A
C1413      H1418   1.085       .  S
C1414      C1415   1.411       .  A
C1415      C1416   1.404       .  A
C1415      C1419   1.508       .  S
C1416      H1420   1.085       .  S
C1417      H1427   1.111       .  S
C1417      H1428   1.110       .  S
C1417      H1429   1.109       .  S
C1419      H1430   1.111       .  S
C1419      H1431   1.110       .  S
C1419      H1432   1.111       .  S
C1433      C1434   1.403   1_455  A
C1433      C1438   1.404       .  A
C1433      H1443   1.084       .  S
C1434      C1439   1.481       .  S
C1434      C1435   1.414   1_655  A
C1435      C1436   1.401       .  A
C1435      C1440   1.509   1_455  S
C1436      C1437   1.399       .  A
C1436      H1441   1.084       .  S
C1437      C1438   1.414       .  A
C1438      C1442   1.506       .  S
C1439      C1444   1.411       .  A
C1439      C1448   1.402       .  A
C1440      H1456   1.110       .  S
C1440      H1457   1.111       .  S
C1440      H1458   1.111   1_655  S
C1442      H1453   1.110       .  S
C1442      H1454   1.110       .  S
C1442      H1455   1.109       .  S
C1444      C1445   1.397       .  A
C1444      C1449   1.509       .  S
C1445      C1446   1.403       .  A
C1445      H1450   1.085       .  S
C1446      C1447   1.422       .  A
C1447      C1448   1.406       .  A
C1447      C1451   1.510       .  S
C1448      H1452   1.085       .  S
C1449      H1459   1.111       .  S
C1449      H1460   1.109       .  S
C1449      H1461   1.111       .  S
C1451      H1462   1.110       .  S
C1451      H1463   1.101       .  S
C1451      H1464   1.111       .  S
C1465      C1466   1.398       .  A
C1465      C1470   1.406       .  A
C1465      H1475   1.084       .  S
C1466      C1471   1.486       .  S
C1466      C1467   1.410       .  A
C1467      C1468   1.408       .  A
C1467      C1472   1.506       .  S
C1468      C1469   1.410       .  A
C1468      H1473   1.083       .  S
C1469      C1470   1.425       .  A
C1470      C1474   1.508       .  S
C1471      C1476   1.411       .  A
C1471      C1480   1.403       .  A
C1472      H1488   1.110       .  S
C1472      H1489   1.110       .  S
C1472      H1490   1.111       .  S
C1474      H1485   1.111       .  S
C1474      H1486   1.110       .  S
C1474      H1487   1.109       .  S
C1476      C1477   1.404       .  A
C1476      C1481   1.506       .  S
C1477      C1478   1.405       .  A
C1477      H1482   1.083       .  S
C1478      C1479   1.415       .  A
C1479      C1480   1.408       .  A
C1479      C1483   1.507       .  S
C1480      H1484   1.082       .  S
C1481      H1491   1.111       .  S
C1481      H1492   1.110       .  S
C1481      H1493   1.110       .  S
C1483      H1494   1.110       .  S
C1483      H1495   1.111       .  S
C1483      H1496   1.109       .  S
C1497      C1498   1.400       .  A
C1497      C1502   1.402       .  A
C1497      H1507   1.085       .  S
C1498      C1503   1.476       .  S
C1498      C1499   1.411       .  A
C1499      C1500   1.403       .  A
C1499      C1504   1.508       .  S
C1500      C1501   1.403       .  A
C1500      H1505   1.085       .  S
C1501      C1502   1.419       .  A
C1502      C1506   1.510       .  S
C1503      C1508   1.409       .  A
C1503      C1512   1.395       .  A
C1504      H1520   1.110       .  S
C1504      H1521   1.109       .  S
C1504      H1522   1.111       .  S
C1506      H1517   1.110       .  S
C1506      H1518   1.111       .  S
C1506      H1519   1.103       .  S
C1508      C1509   1.410       .  A
C1508      C1513   1.504       .  S
C1509      C1510   1.408       .  A
C1509      H1514   1.084       .  S
C1510      C1511   1.421       .  A
C1511      C1512   1.394       .  A
C1511      C1515   1.510       .  S
C1512      H1516   1.086       .  S
C1513      H1523   1.111       .  S
C1513      H1524   1.111       .  S
C1513      H1525   1.109       .  S
C1515      H1526   1.109       .  S
C1515      H1527   1.110       .  S
C1515      H1528   1.111       .  S
C1529      C1530   1.402       .  A
C1529      C1534   1.409       .  A
C1529      H1539   1.084       .  S
C1530      C1535   1.480       .  S
C1530      C1531   1.410       .  A
C1531      C1532   1.398       .  A
C1531      C1536   1.510       .  S
C1532      C1533   1.407       .  A
C1532      H1537   1.085       .  S
C1533      C1534   1.418       .  A
C1534      C1538   1.507       .  S
C1535      C1540   1.410       .  A
C1535      C1544   1.401       .  A
C1536      H1552   1.110       .  S
C1536      H1553   1.109       .  S
C1536      H1554   1.111       .  S
C1538      H1549   1.110       .  S
C1538      H1550   1.111       .  S
C1538      H1551   1.110       .  S
C1540      C1541   1.404   1_655  A
C1540      C1545   1.507       .  S
C1541      C1542   1.406       .  A
C1541      H1546   1.084       .  S
C1542      C1543   1.416       .  A
C1543      C1544   1.404   1_455  A
C1543      C1547   1.509       .  S
C1544      H1548   1.084       .  S
C1545      H1555   1.111       .  S
C1545      H1556   1.110       .  S
C1545      H1557   1.109       .  S
C1547      H1558   1.111       .  S
C1547      H1559   1.111       .  S
C1547      H1560   1.108       .  S
C1561      C1562   1.400       .  A
C1561      C1566   1.397       .  A
C1561      H1571   1.087       .  S
C1562      C1567   1.476       .  S
C1562      C1563   1.410       .  A
C1563      C1564   1.406       .  A
C1563      C1568   1.505       .  S
C1564      C1565   1.405       .  A
C1564      H1569   1.084       .  S
C1565      C1566   1.415       .  A
C1566      C1570   1.509       .  S
C1567      C1572   1.409   1_545  A
C1567      C1576   1.400   1_545  A
C1568      H1584   1.110       .  S
C1568      H1585   1.109       .  S
C1568      H1586   1.111       .  S
C1570      H1581   1.110       .  S
C1570      H1582   1.111       .  S
C1570      H1583   1.106       .  S
C1572      C1573   1.398       .  A
C1572      C1577   1.509   1_565  S
C1573      C1574   1.409       .  A
C1573      H1578   1.083       .  S
C1574      C1575   1.421       .  A
C1575      C1576   1.407       .  A
C1575      C1579   1.507       .  S
C1576      H1580   1.085   1_565  S
C1577      H1587   1.111   1_545  S
C1577      H1588   1.110       .  S
C1577      H1589   1.109       .  S
C1579      H1590   1.110       .  S
C1579      H1591   1.110       .  S
C1579      H1592   1.111       .  S
C1593      C1594   1.402   1_455  A
C1593      C1598   1.407       .  A
C1593      H1603   1.085       .  S
C1594      C1599   1.483       .  S
C1594      C1595   1.408       .  A
C1595      C1596   1.400       .  A
C1595      C1600   1.507       .  S
C1596      C1597   1.409       .  A
C1596      H1601   1.085       .  S
C1597      C1598   1.420   1_655  A
C1598      C1602   1.508       .  S
C1599      C1604   1.409       .  A
C1599      C1608   1.404       .  A
C1600      H1616   1.110       .  S
C1600      H1617   1.110       .  S
C1600      H1618   1.111       .  S
C1602      H1613   1.111       .  S
C1602      H1614   1.111       .  S
C1602      H1615   1.104       .  S
C1604      C1605   1.401       .  A
C1604      C1609   1.507   1_655  S
C1605      C1606   1.405       .  A
C1605      H1610   1.084       .  S
C1606      C1607   1.414       .  A
C1607      C1608   1.407       .  A
C1607      C1611   1.507       .  S
C1608      H1612   1.084       .  S
C1609      H1619   1.111       .  S
C1609      H1620   1.109       .  S
C1609      H1621   1.110       .  S
C1611      H1622   1.111       .  S
C1611      H1623   1.111       .  S
C1611      H1624   1.109       .  S
C1625      C1626   1.401       .  A
C1625      C1630   1.400       .  A
C1625      H1635   1.084       .  S
C1626      C1631   1.477       .  S
C1626      C1627   1.410       .  A
C1627      C1628   1.404       .  A
C1627      C1632   1.506       .  S
C1628      C1629   1.403       .  A
C1628      H1633   1.085       .  S
C1629      C1630   1.414       .  A
C1630      C1634   1.508       .  S
C1631      C1636   1.411       .  A
C1631      C1640   1.401       .  A
C1632      H1648   1.110       .  S
C1632      H1649   1.110       .  S
C1632      H1650   1.111       .  S
C1634      H1645   1.109       .  S
C1634      H1646   1.110       .  S
C1634      H1647   1.109       .  S
C1636      C1637   1.398       .  A
C1636      C1641   1.509       .  S
C1637      C1638   1.402       .  A
C1637      H1642   1.085       .  S
C1638      C1639   1.417       .  A
C1639      C1640   1.406       .  A
C1639      C1643   1.507       .  S
C1640      H1644   1.085       .  S
C1641      H1651   1.111       .  S
C1641      H1652   1.110       .  S
C1641      H1653   1.110       .  S
C1643      H1654   1.110       .  S
C1643      H1655   1.107   1_545  S
C1643      H1656   1.111   1_545  S
C1657      C1658   1.398       .  A
C1657      C1662   1.399   1_455  A
C1657      H1667   1.085       .  S
C1658      C1663   1.479       .  S
C1658      C1659   1.409       .  A
C1659      C1660   1.408       .  A
C1659      C1664   1.505       .  S
C1660      C1661   1.408   1_455  A
C1660      H1665   1.083       .  S
C1661      C1662   1.422       .  A
C1662      C1666   1.510       .  S
C1663      C1668   1.413       .  A
C1663      C1672   1.401       .  A
C1664      H1680   1.110       .  S
C1664      H1681   1.111       .  S
C1664      H1682   1.110       .  S
C1666      H1677   1.111       .  S
C1666      H1678   1.109       .  S
C1666      H1679   1.108       .  S
C1668      C1669   1.404       .  A
C1668      C1673   1.506       .  S
C1669      C1670   1.401       .  A
C1669      H1674   1.085       .  S
C1670      C1671   1.410       .  A
C1671      C1672   1.399       .  A
C1671      C1675   1.505       .  S
C1672      H1676   1.086       .  S
C1673      H1683   1.111       .  S
C1673      H1684   1.109   1_455  S
C1673      H1685   1.110       .  S
C1675      H1686   1.107       .  S
C1675      H1687   1.109       .  S
C1675      H1688   1.111       .  S
C1689      C1690   1.403   1_545  A
C1689      C1694   1.402       .  A
C1689      H1699   1.085   1_545  S
C1690      C1695   1.488       .  S
C1690      C1691   1.413   1_565  A
C1691      C1692   1.407       .  A
C1691      C1696   1.506       .  S
C1692      C1693   1.404       .  A
C1692      H1697   1.084       .  S
C1693      C1694   1.416       .  A
C1694      C1698   1.510       .  S
C1695      C1700   1.414       .  A
C1695      C1704   1.405       .  A
C1696      H1712   1.108   1_545  S
C1696      H1713   1.110   1_545  S
C1696      H1714   1.111       .  S
C1698      H1709   1.111       .  S
C1698      H1710   1.111       .  S
C1698      H1711   1.108       .  S
C1700      C1701   1.405       .  A
C1700      C1705   1.507       .  S
C1701      C1702   1.405       .  A
C1701      H1706   1.084       .  S
C1702      C1703   1.410       .  A
C1703      C1704   1.403       .  A
C1703      C1707   1.506       .  S
C1704      H1708   1.083       .  S
C1705      H1715   1.111       .  S
C1705      H1716   1.108       .  S
C1705      H1717   1.110       .  S
C1707      H1718   1.109       .  S
C1707      H1719   1.110       .  S
C1707      H1720   1.110       .  S
C1721      C1722   1.399       .  A
C1721      C1726   1.399       .  A
C1721      H1731   1.085       .  S
C1722      C1727   1.481       .  S
C1722      C1723   1.410       .  A
C1723      C1724   1.408       .  A
C1723      C1728   1.505       .  S
C1724      C1725   1.406       .  A
C1724      H1729   1.084       .  S
C1725      C1726   1.416       .  A
C1726      C1730   1.509       .  S
C1727      C1732   1.410       .  A
C1727      C1736   1.403       .  A
C1728      H1744   1.110       .  S
C1728      H1745   1.111       .  S
C1728      H1746   1.111       .  S
C1730      H1741   1.111       .  S
C1730      H1742   1.108       .  S
C1730      H1743   1.109       .  S
C1732      C1733   1.404       .  A
C1732      C1737   1.506       .  S
C1733      C1734   1.403       .  A
C1733      H1738   1.084       .  S
C1734      C1735   1.411       .  A
C1735      C1736   1.402       .  A
C1735      C1739   1.508       .  S
C1736      H1740   1.084       .  S
C1737      H1747   1.111       .  S
C1737      H1748   1.110       .  S
C1737      H1749   1.110       .  S
C1739      H1750   1.110       .  S
C1739      H1751   1.108       .  S
C1739      H1752   1.110       .  S
C1753      C1754   1.402       .  A
C1753      C1758   1.403       .  A
C1753      H1763   1.084       .  S
C1754      C1759   1.488       .  S
C1754      C1755   1.415       .  A
C1755      C1756   1.409       .  A
C1755      C1760   1.507       .  S
C1756      C1757   1.403       .  A
C1756      H1761   1.085       .  S
C1757      C1758   1.414       .  A
C1758      C1762   1.508       .  S
C1759      C1764   1.412       .  A
C1759      C1768   1.399       .  A
C1760      H1776   1.109       .  S
C1760      H1777   1.110       .  S
C1760      H1778   1.111       .  S
C1762      H1773   1.110       .  S
C1762      H1774   1.111       .  S
C1762      H1775   1.109       .  S
C1764      C1765   1.411       .  A
C1764      C1769   1.505       .  S
C1765      C1766   1.409       .  A
C1765      H1770   1.084       .  S
C1766      C1767   1.420       .  A
C1767      C1768   1.400       .  A
C1767      C1771   1.509       .  S
C1768      H1772   1.084       .  S
C1769      H1779   1.111       .  S
C1769      H1780   1.110       .  S
C1769      H1781   1.110       .  S
C1771      H1782   1.111       .  S
C1771      H1783   1.109       .  S
C1771      H1784   1.108       .  S
C1785      C1786   1.405       .  A
C1785      C1790   1.414       .  A
C1785      H1795   1.083       .  S
C1786      C1791   1.492       .  S
C1786      C1787   1.410       .  A
C1787      C1788   1.401       .  A
C1787      C1792   1.508       .  S
C1788      C1789   1.409       .  A
C1788      H1793   1.083       .  S
C1789      C1790   1.421       .  A
C1790      C1794   1.507       .  S
C1791      C1796   1.413       .  A
C1791      C1800   1.401       .  A
C1792      H1808   1.110       .  S
C1792      H1809   1.110       .  S
C1792      H1810   1.111       .  S
C1794      H1805   1.110       .  S
C1794      H1806   1.111       .  S
C1794      H1807   1.110       .  S
C1796      C1797   1.411       .  A
C1796      C1801   1.505       .  S
C1797      C1798   1.405       .  A
C1797      H1802   1.085       .  S
C1798      C1799   1.419       .  A
C1799      C1800   1.404       .  A
C1799      C1803   1.510       .  S
C1800      H1804   1.086       .  S
C1801      H1811   1.111       .  S
C1801      H1812   1.110       .  S
C1801      H1813   1.110       .  S
C1803      H1814   1.111       .  S
C1803      H1815   1.108       .  S
C1803      H1816   1.111       .  S
C1817      C1818   1.404       .  A
C1817      C1822   1.406       .  A
C1817      H1827   1.085       .  S
C1818      C1823   1.481       .  S
C1818      C1819   1.411       .  A
C1819      C1820   1.400       .  A
C1819      C1824   1.507       .  S
C1820      C1821   1.400       .  A
C1820      H1825   1.085       .  S
C1821      C1822   1.412       .  A
C1822      C1826   1.508       .  S
C1823      C1828   1.413       .  A
C1823      C1832   1.403       .  A
C1824      H1840   1.110       .  S
C1824      H1841   1.110       .  S
C1824      H1842   1.111       .  S
C1826      H1837   1.110       .  S
C1826      H1838   1.111       .  S
C1826      H1839   1.111       .  S
C1828      C1829   1.399       .  A
C1828      C1833   1.509       .  S
C1829      C1830   1.400       .  A
C1829      H1834   1.084       .  S
C1830      C1831   1.413       .  A
C1831      C1832   1.409       .  A
C1831      C1835   1.505       .  S
C1832      H1836   1.083       .  S
C1833      H1843   1.110       .  S
C1833      H1844   1.110       .  S
C1833      H1845   1.110       .  S
C1835      H1846   1.110       .  S
C1835      H1847   1.110       .  S
C1835      H1848   1.110       .  S
C1849      C1850   1.402       .  A
C1849      C1854   1.410       .  A
C1849      H1859   1.084   1_554  S
C1850      C1855   1.487       .  S
C1850      C1851   1.411       .  A
C1851      C1852   1.401       .  A
C1851      C1856   1.509       .  S
C1852      C1853   1.410       .  A
C1852      H1857   1.083       .  S
C1853      C1854   1.422       .  A
C1854      C1858   1.507       .  S
C1855      C1860   1.415       .  A
C1855      C1864   1.403   1_554  A
C1856      H1872   1.109       .  S
C1856      H1873   1.110       .  S
C1856      H1874   1.111       .  S
C1858      H1869   1.110       .  S
C1858      H1870   1.111   1_554  S
C1858      H1871   1.110   1_554  S
C1860      C1861   1.404       .  A
C1860      C1865   1.507       .  S
C1861      C1862   1.400       .  A
C1861      H1866   1.085       .  S
C1862      C1863   1.415       .  A
C1863      C1864   1.404   1_554  A
C1863      C1867   1.508   1_554  S
C1864      H1868   1.083       .  S
C1865      H1875   1.111       .  S
C1865      H1876   1.109       .  S
C1865      H1877   1.110       .  S
C1867      H1878   1.111       .  S
C1867      H1879   1.109       .  S
C1867      H1880   1.110       .  S
C1881      C1882   1.400       .  A
C1881      C1886   1.407       .  A
C1881      H1891   1.086       .  S
C1882      C1887   1.484       .  S
C1882      C1883   1.409       .  A
C1883      C1884   1.402       .  A
C1883      C1888   1.507       .  S
C1884      C1885   1.408       .  A
C1884      H1889   1.085       .  S
C1885      C1886   1.425       .  A
C1886      C1890   1.509       .  S
C1887      C1892   1.411       .  A
C1887      C1896   1.402       .  A
C1888      H1904   1.110       .  S
C1888      H1905   1.111       .  S
C1888      H1906   1.111       .  S
C1890      H1901   1.111       .  S
C1890      H1902   1.111       .  S
C1890      H1903   1.110       .  S
C1892      C1893   1.403       .  A
C1892      C1897   1.507       .  S
C1893      C1894   1.405       .  A
C1893      H1898   1.084       .  S
C1894      C1895   1.417       .  A
C1895      C1896   1.407       .  A
C1895      C1899   1.507   1_455  S
C1896      H1900   1.085       .  S
C1897      H1907   1.111       .  S
C1897      H1908   1.110       .  S
C1897      H1909   1.110       .  S
C1899      H1910   1.111       .  S
C1899      H1911   1.110       .  S
C1899      H1912   1.110       .  S
C1913      C1914   1.399       .  A
C1913      C1918   1.398       .  A
C1913      H1923   1.085       .  S
C1914      C1919   1.476       .  S
C1914      C1915   1.410       .  A
C1915      C1916   1.405       .  A
C1915      C1920   1.506       .  S
C1916      C1917   1.406       .  A
C1916      H1921   1.084       .  S
C1917      C1918   1.414       .  A
C1918      C1922   1.508       .  S
C1919      C1924   1.410       .  A
C1919      C1928   1.401       .  A
C1920      H1936   1.110       .  S
C1920      H1937   1.110       .  S
C1920      H1938   1.111       .  S
C1922      H1933   1.110       .  S
C1922      H1934   1.110       .  S
C1922      H1935   1.109       .  S
C1924      C1925   1.396       .  A
C1924      C1929   1.509       .  S
C1925      C1926   1.404       .  A
C1925      H1930   1.084       .  S
C1926      C1927   1.420       .  A
C1927      C1928   1.408       .  A
C1927      C1931   1.508       .  S
C1928      H1932   1.084       .  S
C1929      H1939   1.111       .  S
C1929      H1940   1.110       .  S
C1929      H1941   1.109       .  S
C1931      H1942   1.110       .  S
C1931      H1943   1.110       .  S
C1931      H1944   1.111       .  S
C1945      C1946   1.401       .  A
C1945      C1950   1.403       .  A
C1945      H1955   1.084       .  S
C1946      C1951   1.487       .  S
C1946      C1947   1.410       .  A
C1947      C1948   1.406       .  A
C1947      C1952   1.506       .  S
C1948      C1949   1.409       .  A
C1948      H1953   1.083       .  S
C1949      C1950   1.423       .  A
C1950      C1954   1.510       .  S
C1951      C1956   1.414       .  A
C1951      C1960   1.404       .  A
C1952      H1968   1.109       .  S
C1952      H1969   1.110       .  S
C1952      H1970   1.111       .  S
C1954      H1965   1.111       .  S
C1954      H1966   1.111       .  S
C1954      H1967   1.110       .  S
C1956      C1957   1.404       .  A
C1956      C1961   1.507       .  S
C1957      C1958   1.401       .  A
C1957      H1962   1.086       .  S
C1958      C1959   1.412       .  A
C1959      C1960   1.403       .  A
C1959      C1963   1.508       .  S
C1960      H1964   1.085       .  S
C1961      H1971   1.111       .  S
C1961      H1972   1.108       .  S
C1961      H1973   1.110       .  S
C1963      H1974   1.111       .  S
C1963      H1975   1.109       .  S
C1963      H1976   1.110       .  S
C1977      C1978   1.401       .  A
C1977      C1982   1.403       .  A
C1977      H1987   1.086       .  S
C1978      C1983   1.477       .  S
C1978      C1979   1.408       .  A
C1979      C1980   1.401       .  A
C1979      C1984   1.506       .  S
C1980      C1981   1.406       .  A
C1980      H1985   1.085       .  S
C1981      C1982   1.418       .  A
C1982      C1986   1.508       .  S
C1983      C1988   1.410       .  A
C1983      C1992   1.403       .  A
C1984      H2000   1.110       .  S
C1984      H2001   1.110       .  S
C1984      H2002   1.111       .  S
C1986      H1997   1.111       .  S
C1986      H1998   1.111       .  S
C1986      H1999   1.108       .  S
C1988      C1989   1.395       .  A
C1988      C1993   1.509       .  S
C1989      C1990   1.402       .  A
C1989      H1994   1.086       .  S
C1990      C1991   1.417       .  A
C1991      C1992   1.408       .  A
C1991      C1995   1.508       .  S
C1992      H1996   1.087       .  S
C1993      H2003   1.111       .  S
C1993      H2004   1.110       .  S
C1993      H2005   1.110       .  S
C1995      H2006   1.111       .  S
C1995      H2007   1.110       .  S
C1995      H2008   1.111       .  S
C2009      C2010   1.402       .  A
C2009      C2014   1.408       .  A
C2009      H2019   1.082       .  S
C2010      C2015   1.477       .  S
C2010      C2011   1.411       .  A
C2011      C2012   1.397       .  A
C2011      C2016   1.509       .  S
C2012      C2013   1.402       .  A
C2012      H2017   1.084       .  S
C2013      C2014   1.416       .  A
C2014      C2018   1.506       .  S
C2015      C2020   1.410       .  A
C2015      C2024   1.402       .  A
C2016      H2032   1.110       .  S
C2016      H2033   1.109       .  S
C2016      H2034   1.111       .  S
C2018      H2029   1.111       .  S
C2018      H2030   1.109       .  S
C2018      H2031   1.110       .  S
C2020      C2021   1.402       .  A
C2020      C2025   1.507       .  S
C2021      C2022   1.403       .  A
C2021      H2026   1.084       .  S
C2022      C2023   1.413       .  A
C2023      C2024   1.401       .  A
C2023      C2027   1.508       .  S
C2024      H2028   1.085       .  S
C2025      H2035   1.111       .  S
C2025      H2036   1.110       .  S
C2025      H2037   1.110       .  S
C2027      H2038   1.110       .  S
C2027      H2039   1.109       .  S
C2027      H2040   1.110       .  S
C2041      C2042   1.404       .  A
C2041      C2046   1.411       .  A
C2041      H2051   1.087       .  S
C2042      C2047   1.482       .  S
C2042      C2043   1.411       .  A
C2043      C2044   1.396       .  A
C2043      C2048   1.510       .  S
C2044      C2045   1.403       .  A
C2044      H2049   1.086       .  S
C2045      C2046   1.417       .  A
C2046      C2050   1.507       .  S
C2047      C2052   1.409       .  A
C2047      C2056   1.401       .  A
C2048      H2064   1.110       .  S
C2048      H2065   1.109       .  S
C2048      H2066   1.111       .  S
C2050      H2061   1.111       .  S
C2050      H2062   1.111       .  S
C2050      H2063   1.110       .  S
C2052      C2053   1.405       .  A
C2052      C2057   1.507       .  S
C2053      C2054   1.408       .  A
C2053      H2058   1.084       .  S
C2054      C2055   1.419       .  A
C2055      C2056   1.404       .  A
C2055      C2059   1.509       .  S
C2056      H2060   1.085       .  S
C2057      H2067   1.111       .  S
C2057      H2068   1.110       .  S
C2057      H2069   1.110       .  S
C2059      H2070   1.111       .  S
C2059      H2071   1.110       .  S
C2059      H2072   1.109       .  S
C2073      C2074   1.399       .  A
C2073      C2078   1.403       .  A
C2073      H2083   1.085       .  S
C2074      C2079   1.484       .  S
C2074      C2075   1.410       .  A
C2075      C2076   1.408       .  A
C2075      C2080   1.505       .  S
C2076      C2077   1.407       .  A
C2076      H2081   1.084       .  S
C2077      C2078   1.420       .  A
C2078      C2082   1.510       .  S
C2079      C2084   1.409       .  A
C2079      C2088   1.402       .  A
C2080      H2096   1.110       .  S
C2080      H2097   1.110       .  S
C2080      H2098   1.111       .  S
C2082      H2093   1.109       .  S
C2082      H2094   1.111       .  S
C2082      H2095   1.110       .  S
C2084      C2085   1.402       .  A
C2084      C2089   1.507       .  S
C2085      C2086   1.406       .  A
C2085      H2090   1.084       .  S
C2086      C2087   1.420       .  A
C2087      C2088   1.408       .  A
C2087      C2091   1.507       .  S
C2088      H2092   1.083       .  S
C2089      H2099   1.111       .  S
C2089      H2100   1.110       .  S
C2089      H2101   1.110       .  S
C2091      H2102   1.111       .  S
C2091      H2103   1.103       .  S
C2091      H2104   1.110       .  S
C2105      C2106   1.401       .  A
C2105      C2110   1.402       .  A
C2105      H2115   1.085   1_554  S
C2106      C2111   1.477       .  S
C2106      C2107   1.412       .  A
C2107      C2108   1.400       .  A
C2107      C2112   1.508       .  S
C2108      C2109   1.401       .  A
C2108      H2113   1.085       .  S
C2109      C2110   1.415       .  A
C2110      C2114   1.510   1_554  S
C2111      C2116   1.411       .  A
C2111      C2120   1.401       .  A
C2112      H2128   1.110       .  S
C2112      H2129   1.110       .  S
C2112      H2130   1.111       .  S
C2114      H2125   1.110       .  S
C2114      H2126   1.110       .  S
C2114      H2127   1.107       .  S
C2116      C2117   1.398       .  A
C2116      C2121   1.509       .  S
C2117      C2118   1.404       .  A
C2117      H2122   1.085       .  S
C2118      C2119   1.415       .  A
C2119      C2120   1.406       .  A
C2119      C2123   1.506       .  S
C2120      H2124   1.086       .  S
C2121      H2131   1.111       .  S
C2121      H2132   1.110       .  S
C2121      H2133   1.111       .  S
C2123      H2134   1.111       .  S
C2123      H2135   1.110   1_554  S
C2123      H2136   1.110       .  S
C2137      C2138   1.401       .  A
C2137      C2142   1.401       .  A
C2137      H2147   1.086       .  S
C2138      C2143   1.478       .  S
C2138      C2139   1.410       .  A
C2139      C2140   1.403       .  A
C2139      C2144   1.507       .  S
C2140      C2141   1.405       .  A
C2140      H2145   1.086       .  S
C2141      C2142   1.415       .  A
C2142      C2146   1.508       .  S
C2143      C2148   1.410       .  A
C2143      C2152   1.401       .  A
C2144      H2160   1.110       .  S
C2144      H2161   1.109       .  S
C2144      H2162   1.111       .  S
C2146      H2157   1.110       .  S
C2146      H2158   1.108       .  S
C2146      H2159   1.111       .  S
C2148      C2149   1.399       .  A
C2148      C2153   1.508       .  S
C2149      C2150   1.405       .  A
C2149      H2154   1.083       .  S
C2150      C2151   1.417       .  A
C2151      C2152   1.405       .  A
C2151      C2155   1.508       .  S
C2152      H2156   1.084       .  S
C2153      H2163   1.111       .  S
C2153      H2164   1.110       .  S
C2153      H2165   1.109       .  S
C2155      H2166   1.110       .  S
C2155      H2167   1.106       .  S
C2155      H2168   1.111       .  S
C2169      C2170   1.398       .  A
C2169      C2174   1.400       .  A
C2169      H2179   1.084       .  S
C2170      C2175   1.484       .  S
C2170      C2171   1.410       .  A
C2171      C2172   1.410       .  A
C2171      C2176   1.505       .  S
C2172      C2173   1.408       .  A
C2172      H2177   1.084       .  S
C2173      C2174   1.421       .  A
C2174      C2178   1.510       .  S
C2175      C2180   1.413       .  A
C2175      C2184   1.405       .  A
C2176      H2192   1.110       .  S
C2176      H2193   1.108       .  S
C2176      H2194   1.111       .  S
C2178      H2189   1.109       .  S
C2178      H2190   1.109       .  S
C2178      H2191   1.111       .  S
C2180      C2181   1.402       .  A
C2180      C2185   1.509       .  S
C2181      C2182   1.402       .  A
C2181      H2186   1.083       .  S
C2182      C2183   1.413       .  A
C2183      C2184   1.408       .  A
C2183      C2187   1.508       .  S
C2184      H2188   1.084       .  S
C2185      H2195   1.111       .  S
C2185      H2196   1.110       .  S
C2185      H2197   1.108       .  S
C2187      H2198   1.111       .  S
C2187      H2199   1.110       .  S
C2187      H2200   1.111       .  S
C2201      C2202   1.406   1_556  A
C2201      C2206   1.412   1_556  A
C2201      H2211   1.084       .  S
C2202      C2207   1.495       .  S
C2202      C2203   1.414       .  A
C2203      C2204   1.399       .  A
C2203      C2208   1.509       .  S
C2204      C2205   1.405       .  A
C2204      H2209   1.085       .  S
C2205      C2206   1.421       .  A
C2206      C2210   1.507   1_554  S
C2207      C2212   1.417       .  A
C2207      C2216   1.405   1_554  A
C2208      H2224   1.109       .  S
C2208      H2225   1.110       .  S
C2208      H2226   1.111       .  S
C2210      H2221   1.111   1_556  S
C2210      H2222   1.110       .  S
C2210      H2223   1.103   1_556  S
C2212      C2213   1.406       .  A
C2212      C2217   1.507       .  S
C2213      C2214   1.400       .  A
C2213      H2218   1.083       .  S
C2214      C2215   1.416       .  A
C2215      C2216   1.405   1_554  A
C2215      C2219   1.508   1_554  S
C2216      H2220   1.085       .  S
C2217      H2227   1.111       .  S
C2217      H2228   1.109       .  S
C2217      H2229   1.110       .  S
C2219      H2230   1.111       .  S
C2219      H2231   1.109       .  S
C2219      H2232   1.110       .  S
C2233      C2234   1.400       .  A
C2233      C2238   1.404       .  A
C2233      H2243   1.080       .  S
C2234      C2239   1.472       .  S
C2234      C2235   1.407       .  A
C2235      C2236   1.398       .  A
C2235      C2240   1.508       .  S
C2236      C2237   1.404       .  A
C2236      H2241   1.085       .  S
C2237      C2238   1.419       .  A
C2238      C2242   1.507       .  S
C2239      C2244   1.406       .  A
C2239      C2248   1.398       .  A
C2240      H2256   1.110       .  S
C2240      H2257   1.110       .  S
C2240      H2258   1.111       .  S
C2242      H2253   1.110       .  S
C2242      H2254   1.109       .  S
C2242      H2255   1.110       .  S
C2244      C2245   1.400       .  A
C2244      C2249   1.507       .  S
C2245      C2246   1.410       .  A
C2245      H2250   1.083       .  S
C2246      C2247   1.421       .  A
C2247      C2248   1.401       .  A
C2247      C2251   1.509       .  S
C2248      H2252   1.080       .  S
C2249      H2259   1.111       .  S
C2249      H2260   1.110       .  S
C2249      H2261   1.110       .  S
C2251      H2262   1.110       .  S
C2251      H2263   1.110       .  S
C2251      H2264   1.111       .  S
C2265      C2266   1.396       .  A
C2265      C2270   1.400       .  A
C2265      H2275   1.086       .  S
C2266      C2271   1.477       .  S
C2266      C2267   1.407       .  A
C2267      C2268   1.404       .  A
C2267      C2272   1.505       .  S
C2268      C2269   1.409       .  A
C2268      H2273   1.084       .  S
C2269      C2270   1.423       .  A
C2270      C2274   1.508       .  S
C2271      C2276   1.410       .  A
C2271      C2280   1.399       .  A
C2272      H2288   1.110       .  S
C2272      H2289   1.110       .  S
C2272      H2290   1.111       .  S
C2274      H2285   1.106       .  S
C2274      H2286   1.111       .  S
C2274      H2287   1.109       .  S
C2276      C2277   1.402       .  A
C2276      C2281   1.508       .  S
C2277      C2278   1.407       .  A
C2277      H2282   1.084       .  S
C2278      C2279   1.419       .  A
C2279      C2280   1.403       .  A
C2279      C2283   1.508       .  S
C2280      H2284   1.085       .  S
C2281      H2291   1.111       .  S
C2281      H2292   1.110       .  S
C2281      H2293   1.110       .  S
C2283      H2294   1.111       .  S
C2283      H2295   1.109       .  S
C2283      H2296   1.111       .  S
C2297      C2298   1.400       .  A
C2297      C2302   1.403       .  A
C2297      H2307   1.085       .  S
C2298      C2303   1.479       .  S
C2298      C2299   1.411       .  A
C2299      C2300   1.402       .  A
C2299      C2304   1.506       .  S
C2300      C2301   1.403       .  A
C2300      H2305   1.085       .  S
C2301      C2302   1.417       .  A
C2302      C2306   1.508       .  S
C2303      C2308   1.410       .  A
C2303      C2312   1.401       .  A
C2304      H2320   1.110       .  S
C2304      H2321   1.110       .  S
C2304      H2322   1.111       .  S
C2306      H2317   1.111       .  S
C2306      H2318   1.109       .  S
C2306      H2319   1.110       .  S
C2308      C2309   1.403       .  A
C2308      C2313   1.506       .  S
C2309      C2310   1.404       .  A
C2309      H2314   1.084       .  S
C2310      C2311   1.415       .  A
C2311      C2312   1.403       .  A
C2311      C2315   1.507       .  S
C2312      H2316   1.084       .  S
C2313      H2323   1.111       .  S
C2313      H2324   1.110       .  S
C2313      H2325   1.110       .  S
C2315      H2326   1.110       .  S
C2315      H2327   1.110       .  S
C2315      H2328   1.111       .  S
C2329      C2330   1.398       .  A
C2329      C2334   1.395       .  A
C2329      H2339   1.085       .  S
C2330      C2335   1.473       .  S
C2330      C2331   1.411       .  A
C2331      C2332   1.405       .  A
C2331      C2336   1.506       .  S
C2332      C2333   1.402       .  A
C2332      H2337   1.085       .  S
C2333      C2334   1.413       .  A
C2334      C2338   1.508       .  S
C2335      C2340   1.410       .  A
C2335      C2344   1.401       .  A
C2336      H2352   1.110       .  S
C2336      H2353   1.109       .  S
C2336      H2354   1.111       .  S
C2338      H2349   1.110       .  S
C2338      H2350   1.110       .  S
C2338      H2351   1.105       .  S
C2340      C2341   1.397       .  A
C2340      C2345   1.511       .  S
C2341      C2342   1.405       .  A
C2341      H2346   1.083       .  S
C2342      C2343   1.415       .  A
C2343      C2344   1.406       .  A
C2343      C2347   1.505       .  S
C2344      H2348   1.084       .  S
C2345      H2355   1.111       .  S
C2345      H2356   1.110       .  S
C2345      H2357   1.109       .  S
C2347      H2358   1.111       .  S
C2347      H2359   1.108       .  S
C2347      H2360   1.111       .  S
C2361      C2362   1.400       .  A
C2361      C2366   1.404       .  A
C2361      H2371   1.084       .  S
C2362      C2367   1.479       .  S
C2362      C2363   1.407       .  A
C2363      C2364   1.402       .  A
C2363      C2368   1.507       .  S
C2364      C2365   1.410       .  A
C2364      H2369   1.083       .  S
C2365      C2366   1.421       .  A
C2366      C2370   1.508       .  S
C2367      C2372   1.409       .  A
C2367      C2376   1.402       .  A
C2368      H2384   1.110       .  S
C2368      H2385   1.111       .  S
C2368      H2386   1.111       .  S
C2370      H2381   1.110       .  S
C2370      H2382   1.111       .  S
C2370      H2383   1.110       .  S
C2372      C2373   1.399       .  A
C2372      C2377   1.507       .  S
C2373      C2374   1.404       .  A
C2373      H2378   1.085       .  S
C2374      C2375   1.416       .  A
C2375      C2376   1.405       .  A
C2375      C2379   1.507       .  S
C2376      H2380   1.086       .  S
C2377      H2387   1.111       .  S
C2377      H2388   1.110       .  S
C2377      H2389   1.110       .  S
C2379      H2390   1.111       .  S
C2379      H2391   1.110       .  S
C2379      H2392   1.109       .  S
C2393      C2394   1.402       .  A
C2393      C2398   1.404       .  A
C2393      H2403   1.084       .  S
C2394      C2399   1.478       .  S
C2394      C2395   1.413       .  A
C2395      C2396   1.400       .  A
C2395      C2400   1.509       .  S
C2396      C2397   1.400       .  A
C2396      H2401   1.085       .  S
C2397      C2398   1.414       .  A
C2398      C2402   1.507       .  S
C2399      C2404   1.410       .  A
C2399      C2408   1.398       .  A
C2400      H2416   1.110       .  S
C2400      H2417   1.108       .  S
C2400      H2418   1.111       .  S
C2402      H2413   1.110       .  S
C2402      H2414   1.111       .  S
C2402      H2415   1.107       .  S
C2404      C2405   1.408       .  A
C2404      C2409   1.505       .  S
C2405      C2406   1.407       .  A
C2405      H2410   1.084       .  S
C2406      C2407   1.418       .  A
C2407      C2408   1.397       .  A
C2407      C2411   1.511       .  S
C2408      H2412   1.084       .  S
C2409      H2419   1.111       .  S
C2409      H2420   1.110       .  S
C2409      H2421   1.108       .  S
C2411      H2422   1.111       .  S
C2411      H2423   1.110       .  S
C2411      H2424   1.109       .  S
C2425      C2426   1.404       .  A
C2425      C2430   1.410       .  A
C2425      H2435   1.081       .  S
C2426      C2431   1.480       .  S
C2426      C2427   1.410       .  A
C2427      C2428   1.399       .  A
C2427      C2432   1.510       .  S
C2428      C2429   1.405       .  A
C2428      H2433   1.085       .  S
C2429      C2430   1.417       .  A
C2430      C2434   1.506       .  S
C2431      C2436   1.408       .  A
C2431      C2440   1.397       .  A
C2432      H2448   1.110       .  S
C2432      H2449   1.109       .  S
C2432      H2450   1.111       .  S
C2434      H2445   1.110       .  S
C2434      H2446   1.111       .  S
C2434      H2447   1.110       .  S
C2436      C2437   1.405       .  A
C2436      C2441   1.506       .  S
C2437      C2438   1.410       .  A
C2437      H2442   1.085   1_455  S
C2438      C2439   1.424       .  A
C2439      C2440   1.401       .  A
C2439      C2443   1.510       .  S
C2440      H2444   1.086       .  S
C2441      H2451   1.111   1_455  S
C2441      H2452   1.110   1_455  S
C2441      H2453   1.109       .  S
C2443      H2454   1.110       .  S
C2443      H2455   1.110       .  S
C2443      H2456   1.111       .  S
C2457      C2458   1.399       .  A
C2457      C2462   1.404       .  A
C2457      H2467   1.083       .  S
C2458      C2463   1.482       .  S
C2458      C2459   1.411       .  A
C2459      C2460   1.404       .  A
C2459      C2464   1.507       .  S
C2460      C2461   1.405       .  A
C2460      H2465   1.083       .  S
C2461      C2462   1.422       .  A
C2462      C2466   1.509       .  S
C2463      C2468   1.409       .  A
C2463      C2472   1.403       .  A
C2464      H2480   1.109       .  S
C2464      H2481   1.111       .  S
C2464      H2482   1.111       .  S
C2466      H2477   1.111       .  S
C2466      H2478   1.109       .  S
C2466      H2479   1.111       .  S
C2468      C2469   1.402       .  A
C2468      C2473   1.507       .  S
C2469      C2470   1.406       .  A
C2469      H2474   1.083       .  S
C2470      C2471   1.415       .  A
C2471      C2472   1.405       .  A
C2471      C2475   1.507       .  S
C2472      H2476   1.084       .  S
C2473      H2483   1.111       .  S
C2473      H2484   1.109       .  S
C2473      H2485   1.111       .  S
C2475      H2486   1.111       .  S
C2475      H2487   1.109       .  S
C2475      H2488   1.110       .  S
C2489      C2490   1.402       .  A
C2489      C2494   1.411       .  A
C2489      H2499   1.084       .  S
C2490      C2495   1.478       .  S
C2490      C2491   1.409       .  A
C2491      C2492   1.394       .  A
C2491      C2496   1.511       .  S
C2492      C2493   1.407       .  A
C2492      H2497   1.082       .  S
C2493      C2494   1.418       .  A
C2494      C2498   1.505       .  S
C2495      C2500   1.408       .  A
C2495      C2504   1.401       .  A
C2496      H2512   1.110       .  S
C2496      H2513   1.110       .  S
C2496      H2514   1.111       .  S
C2498      H2509   1.111       .  S
C2498      H2510   1.110       .  S
C2498      H2511   1.110       .  S
C2500      C2501   1.403       .  A
C2500      C2505   1.506       .  S
C2501      C2502   1.407       .  A
C2501      H2506   1.083       .  S
C2502      C2503   1.417       .  A
C2503      C2504   1.403       .  A
C2503      C2507   1.509       .  S
C2504      H2508   1.082       .  S
C2505      H2515   1.111       .  S
C2505      H2516   1.110       .  S
C2505      H2517   1.110       .  S
C2507      H2518   1.111       .  S
C2507      H2519   1.109       .  S
C2507      H2520   1.110       .  S
C2521      C2522   1.403       .  A
C2521      C2526   1.405       .  A
C2521      H2531   1.084       .  S
C2522      C2527   1.482       .  S
C2522      C2523   1.410       .  A
C2523      C2524   1.401       .  A
C2523      C2528   1.507       .  S
C2524      C2525   1.405       .  A
C2524      H2529   1.084       .  S
C2525      C2526   1.417       .  A
C2526      C2530   1.508       .  S
C2527      C2532   1.408       .  A
C2527      C2536   1.399       .  A
C2528      H2544   1.109       .  S
C2528      H2545   1.110       .  S
C2528      H2546   1.111       .  S
C2530      H2541   1.111       .  S
C2530      H2542   1.110       .  S
C2530      H2543   1.104       .  S
C2532      C2533   1.406       .  A
C2532      C2537   1.505       .  S
C2533      C2534   1.409       .  A
C2533      H2538   1.083       .  S
C2534      C2535   1.425       .  A
C2535      C2536   1.401       .  A
C2535      C2539   1.511       .  S
C2536      H2540   1.082       .  S
C2537      H2547   1.111       .  S
C2537      H2548   1.109       .  S
C2537      H2549   1.110       .  S
C2539      H2550   1.110       .  S
C2539      H2551   1.111       .  S
C2539      H2552   1.110       .  S
C2553      C2554   1.403       .  A
C2553      C2558   1.398       .  A
C2553      H2563   1.085       .  S
C2554      C2559   1.480       .  S
C2554      C2555   1.415       .  A
C2555      C2556   1.402       .  A
C2555      C2560   1.508       .  S
C2556      C2557   1.401       .  A
C2556      H2561   1.084       .  S
C2557      C2558   1.412       .  A
C2558      C2562   1.509       .  S
C2559      C2564   1.410       .  A
C2559      C2568   1.398       .  A
C2560      H2576   1.108       .  S
C2560      H2577   1.110       .  S
C2560      H2578   1.111       .  S
C2562      H2573   1.111       .  S
C2562      H2574   1.110       .  S
C2562      H2575   1.109       .  S
C2564      C2565   1.406       .  A
C2564      C2569   1.507       .  S
C2565      C2566   1.410       .  A
C2565      H2570   1.083       .  S
C2566      C2567   1.423       .  A
C2567      C2568   1.396       .  A
C2567      C2571   1.509       .  S
C2568      H2572   1.086       .  S
C2569      H2579   1.111       .  S
C2569      H2580   1.108       .  S
C2569      H2581   1.110       .  S
C2571      H2582   1.111       .  S
C2571      H2583   1.110       .  S
C2571      H2584   1.110       .  S
C2585      C2586   1.399       .  A
C2585      C2590   1.406       .  A
C2585      H2595   1.084       .  S
C2586      C2591   1.485       .  S
C2586      C2587   1.409       .  A
C2587      C2588   1.406       .  A
C2587      C2592   1.507       .  S
C2588      C2589   1.410       .  A
C2588      H2593   1.085       .  S
C2589      C2590   1.422       .  A
C2590      C2594   1.507       .  S
C2591      C2596   1.410       .  A
C2591      C2600   1.400       .  A
C2592      H2608   1.110       .  S
C2592      H2609   1.110       .  S
C2592      H2610   1.111       .  S
C2594      H2605   1.109       .  S
C2594      H2606   1.111       .  S
C2594      H2607   1.110       .  S
C2596      C2597   1.405       .  A
C2596      C2601   1.507       .  S
C2597      C2598   1.406       .  A
C2597      H2602   1.085       .  S
C2598      C2599   1.421       .  A
C2599      C2600   1.408       .  A
C2599      C2603   1.508       .  S
C2600      H2604   1.085       .  S
C2601      H2611   1.111       .  S
C2601      H2612   1.111       .  S
C2601      H2613   1.110       .  S
C2603      H2614   1.110       .  S
C2603      H2615   1.110       .  S
C2603      H2616   1.111       .  S
C2617      C2618   1.401       .  A
C2617      C2622   1.399       .  A
C2617      H2627   1.083       .  S
C2618      C2623   1.488       .  S
C2618      C2619   1.415       .  A
C2619      C2620   1.411       .  A
C2619      C2624   1.506       .  S
C2620      C2621   1.406       .  A
C2620      H2625   1.082       .  S
C2621      C2622   1.417       .  A
C2622      C2626   1.510       .  S
C2623      C2628   1.415       .  A
C2623      C2632   1.404       .  A
C2624      H2640   1.109       .  S
C2624      H2641   1.110       .  S
C2624      H2642   1.110       .  S
C2626      H2637   1.111       .  S
C2626      H2638   1.109       .  S
C2626      H2639   1.111       .  S
C2628      C2629   1.403       .  A
C2628      C2633   1.508       .  S
C2629      C2630   1.402       .  A
C2629      H2634   1.084       .  S
C2630      C2631   1.415       .  A
C2631      C2632   1.404       .  A
C2631      C2635   1.509       .  S
C2632      H2636   1.084       .  S
C2633      H2643   1.111       .  S
C2633      H2644   1.108       .  S
C2633      H2645   1.110       .  S
C2635      H2646   1.110       .  S
C2635      H2647   1.105       .  S
C2635      H2648   1.110       .  S
C2649      C2650   1.403       .  A
C2649      C2654   1.407       .  A
C2649      H2659   1.083       .  S
C2650      C2655   1.486       .  S
C2650      C2651   1.413       .  A
C2651      C2652   1.402       .  A
C2651      C2656   1.508       .  S
C2652      C2653   1.404       .  A
C2652      H2657   1.084       .  S
C2653      C2654   1.417       .  A
C2654      C2658   1.507       .  S
C2655      C2660   1.415       .  A
C2655      C2664   1.404       .  A
C2656      H2672   1.110       .  S
C2656      H2673   1.110       .  S
C2656      H2674   1.111       .  S
C2658      H2669   1.110       .  S
C2658      H2670   1.110       .  S
C2658      H2671   1.109       .  S
C2660      C2661   1.401       .  A
C2660      C2665   1.508       .  S
C2661      C2662   1.399       .  A
C2661      H2666   1.085       .  S
C2662      C2663   1.413       .  A
C2663      C2664   1.407       .  A
C2663      C2667   1.507       .  S
C2664      H2668   1.085       .  S
C2665      H2675   1.111       .  S
C2665      H2676   1.110       .  S
C2665      H2677   1.110       .  S
C2667      H2678   1.111       .  S
C2667      H2679   1.110       .  S
C2667      H2680   1.110       .  S
C2681      C2682   1.401       .  A
C2681      C2686   1.402       .  A
C2681      H2691   1.084       .  S
C2682      C2687   1.482       .  S
C2682      C2683   1.411       .  A
C2683      C2684   1.406       .  A
C2683      C2688   1.505       .  S
C2684      C2685   1.403       .  A
C2684      H2689   1.084       .  S
C2685      C2686   1.416       .  A
C2686      C2690   1.508       .  S
C2687      C2692   1.411       .  A
C2687      C2696   1.402       .  A
C2688      H2704   1.110       .  S
C2688      H2705   1.110       .  S
C2688      H2706   1.111       .  S
C2690      H2701   1.111       .  S
C2690      H2702   1.108       .  S
C2690      H2703   1.109       .  S
C2692      C2693   1.406       .  A
C2692      C2697   1.505       .  S
C2693      C2694   1.404       .  A
C2693      H2698   1.085       .  S
C2694      C2695   1.412       .  A
C2695      C2696   1.400       .  A
C2695      C2699   1.508       .  S
C2696      H2700   1.085       .  S
C2697      H2707   1.111       .  S
C2697      H2708   1.110       .  S
C2697      H2709   1.110       .  S
C2699      H2710   1.111       .  S
C2699      H2711   1.107       .  S
C2699      H2712   1.110       .  S
C2713      C2714   1.400       .  A
C2713      C2718   1.408       .  A
C2713      H2723   1.085       .  S
C2714      C2719   1.483       .  S
C2714      C2715   1.407       .  A
C2715      C2716   1.403       .  A
C2715      C2720   1.508       .  S
C2716      C2717   1.412       .  A
C2716      H2721   1.082       .  S
C2717      C2718   1.423       .  A
C2718      C2722   1.508       .  S
C2719      C2724   1.409       .  A
C2719      C2728   1.401       .  A
C2720      H2736   1.110       .  S
C2720      H2737   1.110       .  S
C2720      H2738   1.111       .  S
C2722      H2733   1.111       .  S
C2722      H2734   1.110       .  S
C2722      H2735   1.110       .  S
C2724      C2725   1.405       .  A
C2724      C2729   1.507       .  S
C2725      C2726   1.408       .  A
C2725      H2730   1.082       .  S
C2726      C2727   1.418       .  A
C2727      C2728   1.406       .  A
C2727      C2731   1.508       .  S
C2728      H2732   1.083       .  S
C2729      H2739   1.110       .  S
C2729      H2740   1.110       .  S
C2729      H2741   1.110       .  S
C2731      H2742   1.110       .  S
C2731      H2743   1.111       .  S
C2731      H2744   1.110       .  S
C2745      C2746   1.401       .  A
C2745      C2750   1.400       .  A
C2745      H2755   1.085       .  S
C2746      C2751   1.481       .  S
C2746      C2747   1.412       .  A
C2747      C2748   1.403       .  A
C2747      C2752   1.507       .  S
C2748      C2749   1.402       .  A
C2748      H2753   1.086       .  S
C2749      C2750   1.417       .  A
C2750      C2754   1.508       .  S
C2751      C2756   1.410       .  A
C2751      C2760   1.399       .  A
C2752      H2768   1.109       .  S
C2752      H2769   1.110       .  S
C2752      H2770   1.111       .  S
C2754      H2765   1.110       .  S
C2754      H2766   1.111       .  S
C2754      H2767   1.103       .  S
C2756      C2757   1.406       .  A
C2756      C2761   1.506       .  S
C2757      C2758   1.408       .  A
C2757      H2762   1.085       .  S
C2758      C2759   1.421       .  A
C2759      C2760   1.399       .  A
C2759      C2763   1.510       .  S
C2760      H2764   1.085       .  S
C2761      H2771   1.111       .  S
C2761      H2772   1.109       .  S
C2761      H2773   1.110       .  S
C2763      H2774   1.110       .  S
C2763      H2775   1.109       .  S
C2763      H2776   1.111       .  S
C2777      C2778   1.399       .  A
C2777      C2782   1.398       .  A
C2777      H2787   1.085       .  S
C2778      C2783   1.478       .  S
C2778      C2779   1.410       .  A
C2779      C2780   1.407       .  A
C2779      C2784   1.505       .  S
C2780      C2781   1.405       .  A
C2780      H2785   1.083       .  S
C2781      C2782   1.417       .  A
C2782      C2786   1.510       .  S
C2783      C2788   1.410       .  A
C2783      C2792   1.402       .  A
C2784      H2800   1.110       .  S
C2784      H2801   1.108       .  S
C2784      H2802   1.111       .  S
C2786      H2797   1.111       .  S
C2786      H2798   1.110       .  S
C2786      H2799   1.109       .  S
C2788      C2789   1.401       .  A
C2788      C2793   1.507       .  S
C2789      C2790   1.403       .  A
C2789      H2794   1.084       .  S
C2790      C2791   1.417       .  A
C2791      C2792   1.404       .  A
C2791      C2795   1.509       .  S
C2792      H2796   1.085       .  S
C2793      H2803   1.111       .  S
C2793      H2804   1.110       .  S
C2793      H2805   1.109       .  S
C2795      H2806   1.111       .  S
C2795      H2807   1.105       .  S
C2795      H2808   1.110       .  S
C2809      C2810   1.405       .  A
C2809      C2814   1.409       .  A
C2809      H2819   1.085       .  S
C2810      C2815   1.483       .  S
C2810      C2811   1.410       .  A
C2811      C2812   1.398       .  A
C2811      C2816   1.508       .  S
C2812      C2813   1.403       .  A
C2812      H2817   1.085       .  S
C2813      C2814   1.414       .  A
C2814      C2818   1.505       .  S
C2815      C2820   1.412       .  A
C2815      C2824   1.403       .  A
C2816      H2832   1.110       .  S
C2816      H2833   1.110       .  S
C2816      H2834   1.111       .  S
C2818      H2829   1.110       .  S
C2818      H2830   1.110       .  S
C2818      H2831   1.108       .  S
C2820      C2821   1.401       .  A
C2820      C2825   1.508       .  S
C2821      C2822   1.403       .  A
C2821      H2826   1.085       .  S
C2822      C2823   1.416       .  A
C2823      C2824   1.408       .  A
C2823      C2827   1.506       .  S
C2824      H2828   1.085       .  S
C2825      H2835   1.111       .  S
C2825      H2836   1.110       .  S
C2825      H2837   1.110       .  S
C2827      H2838   1.109       .  S
C2827      H2839   1.110       .  S
C2827      H2840   1.111       .  S
C2841      C2842   1.399       .  A
C2841      C2846   1.397       .  A
C2841      H2851   1.084       .  S
C2842      C2847   1.477       .  S
C2842      C2843   1.410       .  A
C2843      C2844   1.407       .  A
C2843      C2848   1.505       .  S
C2844      C2845   1.404       .  A
C2844      H2849   1.085       .  S
C2845      C2846   1.413       .  A
C2846      C2850   1.508       .  S
C2847      C2852   1.409       .  A
C2847      C2856   1.397       .  A
C2848      H2864   1.111       .  S
C2848      H2865   1.109       .  S
C2848      H2866   1.111       .  S
C2850      H2861   1.110       .  S
C2850      H2862   1.110       .  S
C2850      H2863   1.107       .  S
C2852      C2853   1.401       .  A
C2852      C2857   1.508       .  S
C2853      C2854   1.409       .  A
C2853      H2858   1.084       .  S
C2854      C2855   1.424       .  A
C2855      C2856   1.405       .  A
C2855      C2859   1.508       .  S
C2856      H2860   1.084       .  S
C2857      H2867   1.111       .  S
C2857      H2868   1.110       .  S
C2857      H2869   1.109       .  S
C2859      H2870   1.109       .  S
C2859      H2871   1.111       .  S
C2859      H2872   1.111       .  S
C2873      C2874   1.401       .  A
C2873      C2878   1.405       .  A
C2873      H2883   1.084       .  S
C2874      C2879   1.477       .  S
C2874      C2875   1.410       .  A
C2875      C2876   1.400       .  A
C2875      C2880   1.508       .  S
C2876      C2877   1.404       .  A
C2876      H2881   1.084       .  S
C2877      C2878   1.420       .  A
C2878      C2882   1.509       .  S
C2879      C2884   1.408       .  A
C2879      C2888   1.395       .  A
C2880      H2896   1.110       .  S
C2880      H2897   1.109       .  S
C2880      H2898   1.111       .  S
C2882      H2893   1.109       .  S
C2882      H2894   1.111       .  S
C2882      H2895   1.109       .  S
C2884      C2885   1.408       .  A
C2884      C2889   1.506       .  S
C2885      C2886   1.411       .  A
C2885      H2890   1.083       .  S
C2886      C2887   1.424       .  A
C2887      C2888   1.397       .  A
C2887      C2891   1.510       .  S
C2888      H2892   1.085       .  S
C2889      H2899   1.111       .  S
C2889      H2900   1.110       .  S
C2889      H2901   1.109       .  S
C2891      H2902   1.111       .  S
C2891      H2903   1.110       .  S
C2891      H2904   1.110       .  S
C2905      C2906   1.397       .  A
C2905      C2910   1.403       .  A
C2905      H2915   1.084       .  S
C2906      C2911   1.470       .  S
C2906      C2907   1.409       .  A
C2907      C2908   1.397       .  A
C2907      C2912   1.509       .  S
C2908      C2909   1.404       .  A
C2908      H2913   1.085       .  S
C2909      C2910   1.421       .  A
C2910      C2914   1.508       .  S
C2911      C2916   1.408       .  A
C2911      C2920   1.399       .  A
C2912      H2928   1.110       .  S
C2912      H2929   1.110       .  S
C2912      H2930   1.111       .  S
C2914      H2925   1.111       .  S
C2914      H2926   1.109       .  S
C2914      H2927   1.111       .  S
C2916      C2917   1.401       .  A
C2916      C2921   1.506       .  S
C2917      C2918   1.405       .  A
C2917      H2922   1.084       .  S
C2918      C2919   1.413       .  A
C2919      C2920   1.397       .  A
C2919      C2923   1.507       .  S
C2920      H2924   1.085       .  S
C2921      H2931   1.111       .  S
C2921      H2932   1.110       .  S
C2921      H2933   1.110       .  S
C2923      H2934   1.111       .  S
C2923      H2935   1.107       .  S
C2923      H2936   1.110       .  S
C2937      C2938   1.399       .  A
C2937      C2942   1.404       .  A
C2937      H2947   1.085       .  S
C2938      C2943   1.471       .  S
C2938      C2939   1.409       .  A
C2939      C2940   1.395       .  A
C2939      C2944   1.509       .  S
C2940      C2941   1.403       .  A
C2940      H2945   1.085       .  S
C2941      C2942   1.419       .  A
C2942      C2946   1.506       .  S
C2943      C2948   1.409       .  A
C2943      C2952   1.401       .  A
C2944      H2960   1.110       .  S
C2944      H2961   1.110       .  S
C2944      H2962   1.111       .  S
C2946      H2957   1.111       .  S
C2946      H2958   1.110       .  S
C2946      H2959   1.103       .  S
C2948      C2949   1.397       .  A
C2948      C2953   1.507       .  S
C2949      C2950   1.402       .  A
C2949      H2954   1.085       .  S
C2950      C2951   1.412       .  A
C2951      C2952   1.400       .  A
C2951      C2955   1.507       .  S
C2952      H2956   1.084       .  S
C2953      H2963   1.111       .  S
C2953      H2964   1.110       .  S
C2953      H2965   1.110       .  S
C2955      H2966   1.111       .  S
C2955      H2967   1.109       .  S
C2955      H2968   1.110       .  S
C2969      C2970   1.404       .  A
C2969      C2974   1.406       .  A
C2969      H2979   1.084       .  S
C2970      C2975   1.479       .  S
C2970      C2971   1.410       .  A
C2971      C2972   1.398       .  A
C2971      C2976   1.507       .  S
C2972      C2973   1.401       .  A
C2972      H2977   1.084       .  S
C2973      C2974   1.414       .  A
C2974      C2978   1.508       .  S
C2975      C2980   1.408       .  A
C2975      C2984   1.396       .  A
C2976      H2992   1.110       .  S
C2976      H2993   1.110       .  S
C2976      H2994   1.111       .  S
C2978      H2989   1.110       .  S
C2978      H2990   1.110       .  S
C2978      H2991   1.107       .  S
C2980      C2981   1.408   1_655  A
C2980      C2985   1.505       .  S
C2981      C2982   1.409       .  A
C2981      H2986   1.083       .  S
C2982      C2983   1.425       .  A
C2983      C2984   1.400   1_455  A
C2983      C2987   1.510       .  S
C2984      H2988   1.084       .  S
C2985      H2995   1.111       .  S
C2985      H2996   1.110       .  S
C2985      H2997   1.110       .  S
C2987      H2998   1.109       .  S
C2987      H2999   1.110       .  S
C2987      H3000   1.111       .  S
C3001      C3002   1.401       .  A
C3001      C3006   1.407       .  A
C3001      H3011   1.083       .  S
C3002      C3007   1.479       .  S
C3002      C3003   1.411       .  A
C3003      C3004   1.398       .  A
C3003      C3008   1.510       .  S
C3004      C3005   1.405       .  A
C3004      H3009   1.085       .  S
C3005      C3006   1.421       .  A
C3006      C3010   1.510       .  S
C3007      C3012   1.408       .  A
C3007      C3016   1.400       .  A
C3008      H3024   1.110       .  S
C3008      H3025   1.108       .  S
C3008      H3026   1.111       .  S
C3010      H3021   1.110   1_556  S
C3010      H3022   1.110       .  S
C3010      H3023   1.103       .  S
C3012      C3013   1.403       .  A
C3012      C3017   1.507       .  S
C3013      C3014   1.409       .  A
C3013      H3018   1.084       .  S
C3014      C3015   1.419       .  A
C3015      C3016   1.403       .  A
C3015      C3019   1.509       .  S
C3016      H3020   1.085       .  S
C3017      H3027   1.111       .  S
C3017      H3028   1.110       .  S
C3017      H3029   1.108       .  S
C3019      H3030   1.111       .  S
C3019      H3031   1.111       .  S
C3019      H3032   1.108       .  S
C3033      C3034   1.401       .  A
C3033      C3038   1.401       .  A
C3033      H3043   1.085       .  S
C3034      C3039   1.475       .  S
C3034      C3035   1.411       .  A
C3035      C3036   1.403       .  A
C3035      C3040   1.506       .  S
C3036      C3037   1.401       .  A
C3036      H3041   1.085       .  S
C3037      C3038   1.413       .  A
C3038      C3042   1.508       .  S
C3039      C3044   1.408       .  A
C3039      C3048   1.400       .  A
C3040      H3056   1.110       .  S
C3040      H3057   1.110       .  S
C3040      H3058   1.111       .  S
C3042      H3053   1.109       .  S
C3042      H3054   1.111       .  S
C3042      H3055   1.110       .  S
C3044      C3045   1.393       .  A
C3044      C3049   1.509       .  S
C3045      C3046   1.406       .  A
C3045      H3050   1.084       .  S
C3046      C3047   1.422       .  A
C3047      C3048   1.408       .  A
C3047      C3051   1.507       .  S
C3048      H3052   1.086       .  S
C3049      H3059   1.111       .  S
C3049      H3060   1.110       .  S
C3049      H3061   1.107       .  S
C3051      H3062   1.111       .  S
C3051      H3063   1.110       .  S
C3051      H3064   1.110       .  S
C3065      C3066   1.401       .  A
C3065      C3070   1.403       .  A
C3065      H3075   1.085       .  S
C3066      C3071   1.485       .  S
C3066      C3067   1.411       .  A
C3067      C3068   1.405       .  A
C3067      C3072   1.505       .  S
C3068      C3069   1.404       .  A
C3068      H3073   1.085       .  S
C3069      C3070   1.418       .  A
C3070      C3074   1.508       .  S
C3071      C3076   1.410       .  A
C3071      C3080   1.401       .  A
C3072      H3088   1.110       .  S
C3072      H3089   1.110       .  S
C3072      H3090   1.111       .  S
C3074      H3085   1.110       .  S
C3074      H3086   1.111       .  S
C3074      H3087   1.107       .  S
C3076      C3077   1.402       .  A
C3076      C3081   1.508       .  S
C3077      C3078   1.408       .  A
C3077      H3082   1.084       .  S
C3078      C3079   1.421       .  A
C3079      C3080   1.410       .  A
C3079      C3083   1.507       .  S
C3080      H3084   1.084       .  S
C3081      H3091   1.110       .  S
C3081      H3092   1.110       .  S
C3081      H3093   1.110       .  S
C3083      H3094   1.110   1_545  S
C3083      H3095   1.111   1_545  S
C3083      H3096   1.111   1_545  S
C3097      C3098   1.400       .  A
C3097      C3102   1.399       .  A
C3097      H3107   1.086       .  S
C3098      C3103   1.479       .  S
C3098      C3099   1.414       .  A
C3099      C3100   1.403       .  A
C3099      C3104   1.508       .  S
C3100      C3101   1.400       .  A
C3100      H3105   1.086       .  S
C3101      C3102   1.414       .  A
C3102      C3106   1.508       .  S
C3103      C3108   1.412       .  A
C3103      C3112   1.401       .  A
C3104      H3120   1.110       .  S
C3104      H3121   1.110       .  S
C3104      H3122   1.111       .  S
C3106      H3117   1.111       .  S
C3106      H3118   1.110       .  S
C3106      H3119   1.108       .  S
C3108      C3109   1.396       .  A
C3108      C3113   1.510       .  S
C3109      C3110   1.405       .  A
C3109      H3114   1.084       .  S
C3110      C3111   1.419       .  A
C3111      C3112   1.406       .  A
C3111      C3115   1.507       .  S
C3112      H3116   1.084       .  S
C3113      H3123   1.111       .  S
C3113      H3124   1.109       .  S
C3113      H3125   1.110       .  S
C3115      H3126   1.111       .  S
C3115      H3127   1.110       .  S
C3115      H3128   1.110       .  S
C3129      C3130   1.402       .  A
C3129      C3134   1.408       .  A
C3129      H3139   1.084       .  S
C3130      C3135   1.479       .  S
C3130      C3131   1.410       .  A
C3131      C3132   1.397       .  A
C3131      C3136   1.511       .  S
C3132      C3133   1.408       .  A
C3132      H3137   1.084       .  S
C3133      C3134   1.421       .  A
C3134      C3138   1.508       .  S
C3135      C3140   1.408       .  A
C3135      C3144   1.398       .  A
C3136      H3152   1.110       .  S
C3136      H3153   1.107       .  S
C3136      H3154   1.111       .  S
C3138      H3149   1.110       .  S
C3138      H3150   1.111       .  S
C3138      H3151   1.111       .  S
C3140      C3141   1.403       .  A
C3140      C3145   1.508       .  S
C3141      C3142   1.410       .  A
C3141      H3146   1.083       .  S
C3142      C3143   1.423       .  A
C3143      C3144   1.403       .  A
C3143      C3147   1.508       .  S
C3144      H3148   1.084       .  S
C3145      H3155   1.111       .  S
C3145      H3156   1.110       .  S
C3145      H3157   1.108       .  S
C3147      H3158   1.111       .  S
C3147      H3159   1.111       .  S
C3147      H3160   1.109       .  S
C3161      C3162   1.400       .  A
C3161      C3166   1.405       .  A
C3161      H3171   1.084       .  S
C3162      C3167   1.479   1_565  S
C3162      C3163   1.409       .  A
C3163      C3164   1.402       .  A
C3163      C3168   1.507       .  S
C3164      C3165   1.405       .  A
C3164      H3169   1.085       .  S
C3165      C3166   1.419       .  A
C3166      C3170   1.509       .  S
C3167      C3172   1.408       .  A
C3167      C3176   1.403       .  A
C3168      H3184   1.110   1_565  S
C3168      H3185   1.110   1_565  S
C3168      H3186   1.111       .  S
C3170      H3181   1.111       .  S
C3170      H3182   1.111       .  S
C3170      H3183   1.110       .  S
C3172      C3173   1.398       .  A
C3172      C3177   1.508       .  S
C3173      C3174   1.406       .  A
C3173      H3178   1.084       .  S
C3174      C3175   1.417       .  A
C3175      C3176   1.409       .  A
C3175      C3179   1.505       .  S
C3176      H3180   1.084       .  S
C3177      H3187   1.111       .  S
C3177      H3188   1.110   1_545  S
C3177      H3189   1.110   1_545  S
C3179      H3190   1.111       .  S
C3179      H3191   1.109       .  S
C3179      H3192   1.110       .  S
C3193      C3194   1.401       .  A
C3193      C3198   1.400       .  A
C3193      H3203   1.086       .  S
C3194      C3199   1.482       .  S
C3194      C3195   1.409       .  A
C3195      C3196   1.406       .  A
C3195      C3200   1.505       .  S
C3196      C3197   1.406       .  A
C3196      H3201   1.085       .  S
C3197      C3198   1.416       .  A
C3198      C3202   1.508       .  S
C3199      C3204   1.410       .  A
C3199      C3208   1.402       .  A
C3200      H3216   1.110       .  S
C3200      H3217   1.110       .  S
C3200      H3218   1.111       .  S
C3202      H3213   1.111       .  S
C3202      H3214   1.110       .  S
C3202      H3215   1.106       .  S
C3204      C3205   1.403       .  A
C3204      C3209   1.506       .  S
C3205      C3206   1.403       .  A
C3205      H3210   1.084       .  S
C3206      C3207   1.415       .  A
C3207      C3208   1.403       .  A
C3207      C3211   1.508       .  S
C3208      H3212   1.084       .  S
C3209      H3219   1.111       .  S
C3209      H3220   1.110       .  S
C3209      H3221   1.110       .  S
C3211      H3222   1.110       .  S
C3211      H3223   1.107       .  S
C3211      H3224   1.110       .  S
C3225      C3226   1.401       .  A
C3225      C3230   1.408       .  A
C3225      H3235   1.084       .  S
C3226      C3231   1.483       .  S
C3226      C3227   1.411       .  A
C3227      C3228   1.399       .  A
C3227      C3232   1.509       .  S
C3228      C3229   1.406       .  A
C3228      H3233   1.084       .  S
C3229      C3230   1.423       .  A
C3230      C3234   1.509       .  S
C3231      C3236   1.412       .  A
C3231      C3240   1.402       .  A
C3232      H3248   1.110       .  S
C3232      H3249   1.111       .  S
C3232      H3250   1.111       .  S
C3234      H3245   1.111       .  S
C3234      H3246   1.110       .  S
C3234      H3247   1.101       .  S
C3236      C3237   1.402       .  A
C3236      C3241   1.508       .  S
C3237      C3238   1.402       .  A
C3237      H3242   1.083       .  S
C3238      C3239   1.416       .  A
C3239      C3240   1.405       .  A
C3239      C3243   1.507       .  S
C3240      H3244   1.084       .  S
C3241      H3251   1.111       .  S
C3241      H3252   1.110       .  S
C3241      H3253   1.110       .  S
C3243      H3254   1.110       .  S
C3243      H3255   1.106       .  S
C3243      H3256   1.110       .  S
C3257      C3258   1.401       .  A
C3257      C3262   1.403       .  A
C3257      H3267   1.083       .  S
C3258      C3263   1.484       .  S
C3258      C3259   1.415       .  A
C3259      C3260   1.405       .  A
C3259      C3264   1.507       .  S
C3260      C3261   1.400       .  A
C3260      H3265   1.084       .  S
C3261      C3262   1.414       .  A
C3262      C3266   1.508       .  S
C3263      C3268   1.410       .  A
C3263      C3272   1.401       .  A
C3264      H3280   1.110       .  S
C3264      H3281   1.111       .  S
C3264      H3282   1.111       .  S
C3266      H3277   1.110       .  S
C3266      H3278   1.111       .  S
C3266      H3279   1.109       .  S
C3268      C3269   1.401       .  A
C3268      C3273   1.509       .  S
C3269      C3270   1.408       .  A
C3269      H3274   1.085       .  S
C3270      C3271   1.421       .  A
C3271      C3272   1.407       .  A
C3271      C3275   1.508       .  S
C3272      H3276   1.084       .  S
C3273      H3283   1.111       .  S
C3273      H3284   1.110       .  S
C3273      H3285   1.110       .  S
C3275      H3286   1.110       .  S
C3275      H3287   1.101       .  S
C3275      H3288   1.110       .  S
C3289      C3290   1.404       .  A
C3289      C3294   1.408       .  A
C3289      H3299   1.084       .  S
C3290      C3295   1.491       .  S
C3290      C3291   1.413       .  A
C3291      C3292   1.407       .  A
C3291      C3296   1.506       .  S
C3292      C3293   1.403       .  A
C3292      H3297   1.084       .  S
C3293      C3294   1.412       .  A
C3294      C3298   1.507       .  S
C3295      C3300   1.410       .  A
C3295      C3304   1.400       .  A
C3296      H3312   1.110       .  S
C3296      H3313   1.109       .  S
C3296      H3314   1.111       .  S
C3298      H3309   1.111       .  S
C3298      H3310   1.111       .  S
C3298      H3311   1.110       .  S
C3300      C3301   1.406       .  A
C3300      C3305   1.508       .  S
C3301      C3302   1.412       .  A
C3301      H3306   1.083       .  S
C3302      C3303   1.425       .  A
C3303      C3304   1.411       .  A
C3303      C3307   1.506       .  S
C3304      H3308   1.084       .  S
C3305      H3315   1.111       .  S
C3305      H3316   1.110       .  S
C3305      H3317   1.109       .  S
C3307      H3318   1.111       .  S
C3307      H3319   1.110       .  S
C3307      H3320   1.108       .  S
C3321      C3322   1.403       .  A
C3321      C3326   1.407       .  A
C3321      H3331   1.084       .  S
C3322      C3327   1.477       .  S
C3322      C3323   1.412       .  A
C3323      C3324   1.393       .  A
C3323      C3328   1.510       .  S
C3324      C3325   1.402       .  A
C3324      H3329   1.085       .  S
C3325      C3326   1.416       .  A
C3326      C3330   1.506       .  S
C3327      C3332   1.411       .  A
C3327      C3336   1.402       .  A
C3328      H3344   1.109       .  S
C3328      H3345   1.110       .  S
C3328      H3346   1.111       .  S
C3330      H3341   1.111       .  S
C3330      H3342   1.111       .  S
C3330      H3343   1.108       .  S
C3332      C3333   1.399       .  A
C3332      C3337   1.507       .  S
C3333      C3334   1.402       .  A
C3333      H3338   1.085       .  S
C3334      C3335   1.414       .  A
C3335      C3336   1.404       .  A
C3335      C3339   1.505       .  S
C3336      H3340   1.083       .  S
C3337      H3347   1.111       .  S
C3337      H3348   1.110       .  S
C3337      H3349   1.110       .  S
C3339      H3350   1.110       .  S
C3339      H3351   1.111       .  S
C3339      H3352   1.110       .  S
C3353      C3354   1.398       .  A
C3353      C3358   1.393       .  A
C3353      H3363   1.085       .  S
C3354      C3359   1.479       .  S
C3354      C3355   1.412       .  A
C3355      C3356   1.409       .  A
C3355      C3360   1.505       .  S
C3356      C3357   1.406       .  A
C3356      H3361   1.083       .  S
C3357      C3358   1.415       .  A
C3358      C3362   1.508       .  S
C3359      C3364   1.413       .  A
C3359      C3368   1.403       .  A
C3360      H3376   1.110       .  S
C3360      H3377   1.110       .  S
C3360      H3378   1.111       .  S
C3362      H3373   1.111       .  S
C3362      H3374   1.108       .  S
C3362      H3375   1.110       .  S
C3364      C3365   1.402       .  A
C3364      C3369   1.507       .  S
C3365      C3366   1.401       .  A
C3365      H3370   1.085       .  S
C3366      C3367   1.412       .  A
C3367      C3368   1.403       .  A
C3367      C3371   1.508       .  S
C3368      H3372   1.083       .  S
C3369      H3379   1.111       .  S
C3369      H3380   1.109       .  S
C3369      H3381   1.110       .  S
C3371      H3382   1.110       .  S
C3371      H3383   1.110       .  S
C3371      H3384   1.111       .  S
C3385      C3386   1.403       .  A
C3385      C3390   1.407       .  A
C3385      H3395   1.084       .  S
C3386      C3391   1.479       .  S
C3386      C3387   1.410       .  A
C3387      C3388   1.397       .  A
C3387      C3392   1.508       .  S
C3388      C3389   1.401       .  A
C3388      H3393   1.084       .  S
C3389      C3390   1.415       .  A
C3390      C3394   1.506       .  S
C3391      C3396   1.409       .  A
C3391      C3400   1.401       .  A
C3392      H3408   1.110       .  S
C3392      H3409   1.110       .  S
C3392      H3410   1.111       .  S
C3394      H3405   1.110       .  S
C3394      H3406   1.109       .  S
C3394      H3407   1.107       .  S
C3396      C3397   1.406       .  A
C3396      C3401   1.505   1_556  S
C3397      C3398   1.405       .  A
C3397      H3402   1.084       .  S
C3398      C3399   1.415       .  A
C3399      C3400   1.401       .  A
C3399      C3403   1.510       .  S
C3400      H3404   1.085       .  S
C3401      H3411   1.111       .  S
C3401      H3412   1.111       .  S
C3401      H3413   1.110       .  S
C3403      H3414   1.111       .  S
C3403      H3415   1.111       .  S
C3403      H3416   1.109       .  S
C3417      C3418   1.401       .  A
C3417      C3422   1.407       .  A
C3417      H3427   1.084       .  S
C3418      C3423   1.479       .  S
C3418      C3419   1.410       .  A
C3419      C3420   1.400       .  A
C3419      C3424   1.509       .  S
C3420      C3421   1.404       .  A
C3420      H3425   1.083       .  S
C3421      C3422   1.416       .  A
C3422      C3426   1.506       .  S
C3423      C3428   1.411       .  A
C3423      C3432   1.402       .  A
C3424      H3440   1.110       .  S
C3424      H3441   1.110       .  S
C3424      H3442   1.111       .  S
C3426      H3437   1.110       .  S
C3426      H3438   1.110   1_556  S
C3426      H3439   1.106       .  S
C3428      C3429   1.402       .  A
C3428      C3433   1.507       .  S
C3429      C3430   1.403       .  A
C3429      H3434   1.083       .  S
C3430      C3431   1.414       .  A
C3431      C3432   1.402       .  A
C3431      C3435   1.509       .  S
C3432      H3436   1.085       .  S
C3433      H3443   1.111       .  S
C3433      H3444   1.110       .  S
C3433      H3445   1.110       .  S
C3435      H3446   1.110       .  S
C3435      H3447   1.109       .  S
C3435      H3448   1.110       .  S
C3449      C3450   1.402       .  A
C3449      C3454   1.407       .  A
C3449      H3459   1.086       .  S
C3450      C3455   1.479       .  S
C3450      C3451   1.410       .  A
C3451      C3452   1.397       .  A
C3451      C3456   1.510       .  S
C3452      C3453   1.404       .  A
C3452      H3457   1.085       .  S
C3453      C3454   1.420       .  A
C3454      C3458   1.507       .  S
C3455      C3460   1.409       .  A
C3455      C3464   1.400       .  A
C3456      H3472   1.110       .  S
C3456      H3473   1.107       .  S
C3456      H3474   1.111       .  S
C3458      H3469   1.111       .  S
C3458      H3470   1.111       .  S
C3458      H3471   1.101       .  S
C3460      C3461   1.404       .  A
C3460      C3465   1.507       .  S
C3461      C3462   1.409       .  A
C3461      H3466   1.084       .  S
C3462      C3463   1.419       .  A
C3463      C3464   1.402       .  A
C3463      C3467   1.508       .  S
C3464      H3468   1.084       .  S
C3465      H3475   1.111       .  S
C3465      H3476   1.110       .  S
C3465      H3477   1.108       .  S
C3467      H3478   1.111       .  S
C3467      H3479   1.111       .  S
C3467      H3480   1.109       .  S
C3481      C3482   1.397       .  A
C3481      C3486   1.401       .  A
C3481      H3491   1.085       .  S
C3482      C3487   1.475       .  S
C3482      C3483   1.409       .  A
C3483      C3484   1.402       .  A
C3483      C3488   1.507       .  S
C3484      C3485   1.406       .  A
C3484      H3489   1.085       .  S
C3485      C3486   1.420       .  A
C3486      C3490   1.508       .  S
C3487      C3492   1.407       .  A
C3487      C3496   1.396       .  A
C3488      H3504   1.110       .  S
C3488      H3505   1.110       .  S
C3488      H3506   1.111       .  S
C3490      H3501   1.110   1_554  S
C3490      H3502   1.111       .  S
C3490      H3503   1.109   1_554  S
C3492      C3493   1.403       .  A
C3492      C3497   1.506       .  S
C3493      C3494   1.408       .  A
C3493      H3498   1.083       .  S
C3494      C3495   1.425       .  A
C3495      C3496   1.402       .  A
C3495      C3499   1.509       .  S
C3496      H3500   1.084       .  S
C3497      H3507   1.111       .  S
C3497      H3508   1.110       .  S
C3497      H3509   1.110       .  S
C3499      H3510   1.111       .  S
C3499      H3511   1.110       .  S
C3499      H3512   1.110       .  S
C3513      C3514   1.399       .  A
C3513      C3518   1.399       .  A
C3513      H3523   1.084       .  S
C3514      C3519   1.472       .  S
C3514      C3515   1.410       .  A
C3515      C3516   1.400       .  A
C3515      C3520   1.507       .  S
C3516      C3517   1.402       .  A
C3516      H3521   1.084       .  S
C3517      C3518   1.416       .  A
C3518      C3522   1.509       .  S
C3519      C3524   1.409       .  A
C3519      C3528   1.401   1_655  A
C3520      H3536   1.110       .  S
C3520      H3537   1.111       .  S
C3520      H3538   1.111       .  S
C3522      H3533   1.109       .  S
C3522      H3534   1.111       .  S
C3522      H3535   1.110       .  S
C3524      C3525   1.394   1_655  A
C3524      C3529   1.509       .  S
C3525      C3526   1.403       .  A
C3525      H3530   1.083       .  S
C3526      C3527   1.417       .  A
C3527      C3528   1.403       .  A
C3527      C3531   1.508       .  S
C3528      H3532   1.082       .  S
C3529      H3539   1.111       .  S
C3529      H3540   1.109       .  S
C3529      H3541   1.110       .  S
C3531      H3542   1.110       .  S
C3531      H3543   1.105       .  S
C3531      H3544   1.110       .  S
C3545      C3546   1.401       .  A
C3545      C3550   1.404       .  A
C3545      H3555   1.084       .  S
C3546      C3551   1.476       .  S
C3546      C3547   1.408       .  A
C3547      C3548   1.399       .  A
C3547      C3552   1.507       .  S
C3548      C3549   1.405       .  A
C3548      H3553   1.084       .  S
C3549      C3550   1.418       .  A
C3550      C3554   1.508       .  S
C3551      C3556   1.409       .  A
C3551      C3560   1.402       .  A
C3552      H3568   1.110       .  S
C3552      H3569   1.110       .  S
C3552      H3570   1.111       .  S
C3554      H3565   1.110       .  S
C3554      H3566   1.111       .  S
C3554      H3567   1.107       .  S
C3556      C3557   1.400       .  A
C3556      C3561   1.507       .  S
C3557      C3558   1.404       .  A
C3557      H3562   1.085       .  S
C3558      C3559   1.413       .  A
C3559      C3560   1.403       .  A
C3559      C3563   1.507       .  S
C3560      H3564   1.084       .  S
C3561      H3571   1.111       .  S
C3561      H3572   1.110       .  S
C3561      H3573   1.111       .  S
C3563      H3574   1.111       .  S
C3563      H3575   1.111       .  S
C3563      H3576   1.110       .  S
C3577      C3578   1.400       .  A
C3577      C3582   1.405       .  A
C3577      H3587   1.084       .  S
C3578      C3583   1.476       .  S
C3578      C3579   1.409       .  A
C3579      C3580   1.400       .  A
C3579      C3584   1.508       .  S
C3580      C3581   1.404       .  A
C3580      H3585   1.085       .  S
C3581      C3582   1.417       .  A
C3582      C3586   1.505       .  S
C3583      C3588   1.409       .  A
C3583      C3592   1.403       .  A
C3584      H3600   1.110       .  S
C3584      H3601   1.110       .  S
C3584      H3602   1.111       .  S
C3586      H3597   1.111   1_545  S
C3586      H3598   1.110   1_545  S
C3586      H3599   1.110       .  S
C3588      C3589   1.396       .  A
C3588      C3593   1.508       .  S
C3589      C3590   1.403       .  A
C3589      H3594   1.084       .  S
C3590      C3591   1.414       .  A
C3591      C3592   1.406       .  A
C3591      C3595   1.505       .  S
C3592      H3596   1.082       .  S
C3593      H3603   1.111       .  S
C3593      H3604   1.110       .  S
C3593      H3605   1.110       .  S
C3595      H3606   1.110       .  S
C3595      H3607   1.110       .  S
C3595      H3608   1.110       .  S
C3609      C3610   1.396       .  A
C3609      C3614   1.398       .  A
C3609      H3619   1.086       .  S
C3610      C3615   1.471       .  S
C3610      C3611   1.406       .  A
C3611      C3612   1.402       .  A
C3611      C3616   1.506       .  S
C3612      C3613   1.408       .  A
C3612      H3617   1.085       .  S
C3613      C3614   1.420       .  A
C3614      C3618   1.510       .  S
C3615      C3620   1.407       .  A
C3615      C3624   1.400       .  A
C3616      H3632   1.110       .  S
C3616      H3633   1.110       .  S
C3616      H3634   1.111       .  S
C3618      H3629   1.111       .  S
C3618      H3630   1.111       .  S
C3618      H3631   1.110       .  S
C3620      C3621   1.397       .  A
C3620      C3625   1.507       .  S
C3621      C3622   1.404       .  A
C3621      H3626   1.084       .  S
C3622      C3623   1.417       .  A
C3623      C3624   1.402       .  A
C3623      C3627   1.507       .  S
C3624      H3628   1.084       .  S
C3625      H3635   1.111       .  S
C3625      H3636   1.110       .  S
C3625      H3637   1.110       .  S
C3627      H3638   1.111       .  S
C3627      H3639   1.104       .  S
C3627      H3640   1.110       .  S
C3641      C3642   1.399       .  A
C3641      C3646   1.406       .  A
C3641      H3651   1.084       .  S
C3642      C3647   1.475       .  S
C3642      C3643   1.409       .  A
C3643      C3644   1.397       .  A
C3643      C3648   1.511       .  S
C3644      C3645   1.408       .  A
C3644      H3649   1.084       .  S
C3645      C3646   1.423       .  A
C3646      C3650   1.508       .  S
C3647      C3652   1.411       .  A
C3647      C3656   1.399       .  A
C3648      H3664   1.110       .  S
C3648      H3665   1.108       .  S
C3648      H3666   1.111       .  S
C3650      H3661   1.111       .  S
C3650      H3662   1.110       .  S
C3650      H3663   1.110       .  S
C3652      C3653   1.406       .  A
C3652      C3657   1.506       .  S
C3653      C3654   1.404       .  A
C3653      H3658   1.085       .  S
C3654      C3655   1.412       .  A
C3655      C3656   1.396       .  A
C3655      C3659   1.507       .  S
C3656      H3660   1.085       .  S
C3657      H3667   1.111       .  S
C3657      H3668   1.110       .  S
C3657      H3669   1.109       .  S
C3659      H3670   1.110       .  S
C3659      H3671   1.106       .  S
C3659      H3672   1.110       .  S
C3673      C3674   1.403       .  A
C3673      C3678   1.410       .  A
C3673      H3683   1.083       .  S
C3674      C3679   1.480       .  S
C3674      C3675   1.410       .  A
C3675      C3676   1.398       .  A
C3675      C3680   1.509       .  S
C3676      C3677   1.405       .  A
C3676      H3681   1.083       .  S
C3677      C3678   1.416       .  A
C3678      C3682   1.506       .  S
C3679      C3684   1.411       .  A
C3679      C3688   1.401       .  A
C3680      H3696   1.110       .  S
C3680      H3697   1.110       .  S
C3680      H3698   1.111       .  S
C3682      H3693   1.111       .  S
C3682      H3694   1.109       .  S
C3682      H3695   1.111       .  S
C3684      C3685   1.405       .  A
C3684      C3689   1.507       .  S
C3685      C3686   1.406       .  A
C3685      H3690   1.079       .  S
C3686      C3687   1.415       .  A
C3687      C3688   1.402       .  A
C3687      C3691   1.509       .  S
C3688      H3692   1.083       .  S
C3689      H3699   1.110       .  S
C3689      H3700   1.110       .  S
C3689      H3701   1.110       .  S
C3691      H3702   1.110       .  S
C3691      H3703   1.109       .  S
C3691      H3704   1.110       .  S
C3705      C3706   1.399       .  A
C3705      C3710   1.397       .  A
C3705      H3715   1.085       .  S
C3706      C3711   1.468       .  S
C3706      C3707   1.408       .  A
C3707      C3708   1.398       .  A
C3707      C3712   1.506       .  S
C3708      C3709   1.403       .  A
C3708      H3713   1.084       .  S
C3709      C3710   1.414       .  A
C3710      C3714   1.508       .  S
C3711      C3716   1.408       .  A
C3711      C3720   1.399       .  A
C3712      H3728   1.110       .  S
C3712      H3729   1.110       .  S
C3712      H3730   1.111       .  S
C3714      H3725   1.110       .  S
C3714      H3726   1.111       .  S
C3714      H3727   1.108       .  S
C3716      C3717   1.394       .  A
C3716      C3721   1.509       .  S
C3717      C3718   1.405       .  A
C3717      H3722   1.085       .  S
C3718      C3719   1.417       .  A
C3719      C3720   1.404       .  A
C3719      C3723   1.506       .  S
C3720      H3724   1.085       .  S
C3721      H3731   1.111       .  S
C3721      H3732   1.110       .  S
C3721      H3733   1.110       .  S
C3723      H3734   1.109       .  S
C3723      H3735   1.111       .  S
C3723      H3736   1.111       .  S
C3737      C3738   1.401       .  A
C3737      C3742   1.407       .  A
C3737      H3747   1.083       .  S
C3738      C3743   1.479       .  S
C3738      C3739   1.411       .  A
C3739      C3740   1.402       .  A
C3739      C3744   1.509       .  S
C3740      C3741   1.406       .  A
C3740      H3745   1.083       .  S
C3741      C3742   1.415       .  A
C3742      C3746   1.506       .  S
C3743      C3748   1.411       .  A
C3743      C3752   1.399       .  A
C3744      H3760   1.111       .  S
C3744      H3761   1.110       .  S
C3744      H3762   1.111       .  S
C3746      H3757   1.110       .  S
C3746      H3758   1.111       .  S
C3746      H3759   1.109       .  S
C3748      C3749   1.405       .  A
C3748      C3753   1.505       .  S
C3749      C3750   1.403       .  A
C3749      H3754   1.084       .  S
C3750      C3751   1.419       .  A
C3751      C3752   1.400       .  A
C3751      C3755   1.509       .  S
C3752      H3756   1.085       .  S
C3753      H3763   1.111       .  S
C3753      H3764   1.110       .  S
C3753      H3765   1.109       .  S
C3755      H3766   1.111       .  S
C3755      H3767   1.106       .  S
C3755      H3768   1.110       .  S
C3769      C3770   1.400       .  A
C3769      C3774   1.400       .  A
C3769      H3779   1.084       .  S
C3770      C3775   1.481       .  S
C3770      C3771   1.413       .  A
C3771      C3772   1.406       .  A
C3771      C3776   1.506       .  S
C3772      C3773   1.402       .  A
C3772      H3777   1.084       .  S
C3773      C3774   1.414       .  A
C3774      C3778   1.509       .  S
C3775      C3780   1.409       .  A
C3775      C3784   1.397       .  A
C3776      H3792   1.109       .  S
C3776      H3793   1.111       .  S
C3776      H3794   1.111       .  S
C3778      H3789   1.110       .  S
C3778      H3790   1.110       .  S
C3778      H3791   1.109       .  S
C3780      C3781   1.404       .  A
C3780      C3785   1.506       .  S
C3781      C3782   1.409       .  A
C3781      H3786   1.084       .  S
C3782      C3783   1.427       .  A
C3783      C3784   1.402       .  A
C3783      C3787   1.511       .  S
C3784      H3788   1.085       .  S
C3785      H3795   1.111       .  S
C3785      H3796   1.110       .  S
C3785      H3797   1.110       .  S
C3787      H3798   1.111       .  S
C3787      H3799   1.109       .  S
C3787      H3800   1.110       .  S
C3801      C3802   1.400       .  A
C3801      C3806   1.408       .  A
C3801      H3811   1.084       .  S
C3802      C3807   1.476       .  S
C3802      C3803   1.408       .  A
C3803      C3804   1.395       .  A
C3803      C3808   1.510       .  S
C3804      C3805   1.407       .  A
C3804      H3809   1.084       .  S
C3805      C3806   1.420       .  A
C3806      C3810   1.507       .  S
C3807      C3812   1.408       .  A
C3807      C3816   1.399       .  A
C3808      H3824   1.110       .  S
C3808      H3825   1.110       .  S
C3808      H3826   1.111       .  S
C3810      H3821   1.111       .  S
C3810      H3822   1.109       .  S
C3810      H3823   1.110       .  S
C3812      C3813   1.403       .  A
C3812      C3817   1.506       .  S
C3813      C3814   1.406       .  A
C3813      H3818   1.082       .  S
C3814      C3815   1.417       .  A
C3815      C3816   1.401       .  A
C3815      C3819   1.504       .  S
C3816      H3820   1.084       .  S
C3817      H3827   1.110       .  S
C3817      H3828   1.110       .  S
C3817      H3829   1.110       .  S
C3819      H3830   1.110       .  S
C3819      H3831   1.108       .  S
C3819      H3832   1.108       .  S
C3833      C3834   1.401       .  A
C3833      C3838   1.410       .  A
C3833      H3843   1.084       .  S
C3834      C3839   1.477       .  S
C3834      C3835   1.410       .  A
C3835      C3836   1.395       .  A
C3835      C3840   1.511       .  S
C3836      C3837   1.406       .  A
C3836      H3841   1.084       .  S
C3837      C3838   1.422       .  A
C3838      C3842   1.507       .  S
C3839      C3844   1.411       .  A
C3839      C3848   1.400       .  A
C3840      H3856   1.110       .  S
C3840      H3857   1.110       .  S
C3840      H3858   1.110       .  S
C3842      H3853   1.111       .  S
C3842      H3854   1.110       .  S
C3842      H3855   1.111       .  S
C3844      C3845   1.405       .  A
C3844      C3849   1.505       .  S
C3845      C3846   1.403       .  A
C3845      H3850   1.083       .  S
C3846      C3847   1.414       .  A
C3847      C3848   1.399       .  A
C3847      C3851   1.508       .  S
C3848      H3852   1.086       .  S
C3849      H3859   1.111       .  S
C3849      H3860   1.110       .  S
C3849      H3861   1.110       .  S
C3851      H3862   1.110       .  S
C3851      H3863   1.107       .  S
C3851      H3864   1.111       .  S
C3865      C3866   1.405       .  A
C3865      C3870   1.404       .  A
C3865      H3875   1.084       .  S
C3866      C3871   1.481       .  S
C3866      C3867   1.412       .  A
C3867      C3868   1.401       .  A
C3867      C3872   1.508       .  S
C3868      C3869   1.402       .  A
C3868      H3873   1.083       .  S
C3869      C3870   1.411       .  A
C3870      C3874   1.507       .  S
C3871      C3876   1.411       .  A
C3871      C3880   1.399       .  A
C3872      H3888   1.109       .  S
C3872      H3889   1.110       .  S
C3872      H3890   1.111       .  S
C3874      H3885   1.110       .  S
C3874      H3886   1.110       .  S
C3874      H3887   1.110       .  S
C3876      C3877   1.408       .  A
C3876      C3881   1.505       .  S
C3877      C3878   1.407       .  A
C3877      H3882   1.085       .  S
C3878      C3879   1.418       .  A
C3879      C3880   1.396       .  A
C3879      C3883   1.511       .  S
C3880      H3884   1.084       .  S
C3881      H3891   1.111       .  S
C3881      H3892   1.109       .  S
C3881      H3893   1.110       .  S
C3883      H3894   1.111       .  S
C3883      H3895   1.109       .  S
C3883      H3896   1.109       .  S
C3897      C3898   1.398       .  A
C3897      C3902   1.398       .  A
C3897      H3907   1.085       .  S
C3898      C3903   1.473       .  S
C3898      C3899   1.412       .  A
C3899      C3900   1.402       .  A
C3899      C3904   1.507       .  S
C3900      C3901   1.401       .  A
C3900      H3905   1.085       .  S
C3901      C3902   1.416       .  A
C3902      C3906   1.508       .  S
C3903      C3908   1.409       .  A
C3903      C3912   1.402       .  A
C3904      H3920   1.110       .  S
C3904      H3921   1.110       .  S
C3904      H3922   1.111       .  S
C3906      H3917   1.110       .  S
C3906      H3918   1.110       .  S
C3906      H3919   1.107       .  S
C3908      C3909   1.399       .  A
C3908      C3913   1.506       .  S
C3909      C3910   1.402       .  A
C3909      H3914   1.085       .  S
C3910      C3911   1.410       .  A
C3911      C3912   1.401       .  A
C3911      C3915   1.507       .  S
C3912      H3916   1.084       .  S
C3913      H3923   1.111       .  S
C3913      H3924   1.110       .  S
C3913      H3925   1.110       .  S
C3915      H3926   1.111       .  S
C3915      H3927   1.110       .  S
C3915      H3928   1.109       .  S
C3929      C3930   1.402       .  A
C3929      C3934   1.404       .  A
C3929      H3939   1.085       .  S
C3930      C3935   1.478       .  S
C3930      C3931   1.411       .  A
C3931      C3932   1.398       .  A
C3931      C3936   1.507       .  S
C3932      C3933   1.402       .  A
C3932      H3937   1.085       .  S
C3933      C3934   1.417       .  A
C3934      C3938   1.508       .  S
C3935      C3940   1.408       .  A
C3935      C3944   1.403       .  A
C3936      H3952   1.110       .  S
C3936      H3953   1.110       .  S
C3936      H3954   1.111       .  S
C3938      H3949   1.111       .  S
C3938      H3950   1.110       .  S
C3938      H3951   1.105       .  S
C3940      C3941   1.395       .  A
C3940      C3945   1.510       .  S
C3941      C3942   1.403       .  A
C3941      H3946   1.081       .  S
C3942      C3943   1.419       .  A
C3943      C3944   1.409       .  A
C3943      C3947   1.507       .  S
C3944      H3948   1.084       .  S
C3945      H3955   1.110       .  S
C3945      H3956   1.110       .  S
C3945      H3957   1.110       .  S
C3947      H3958   1.110       .  S
C3947      H3959   1.104       .  S
C3947      H3960   1.110       .  S
C3961      C3962   1.403       .  A
C3961      C3966   1.403       .  A
C3961      H3971   1.085       .  S
C3962      C3967   1.484       .  S
C3962      C3963   1.414       .  A
C3963      C3964   1.402       .  A
C3963      C3968   1.508       .  S
C3964      C3965   1.398       .  A
C3964      H3969   1.082       .  S
C3965      C3966   1.414       .  A
C3966      C3970   1.508       .  S
C3967      C3972   1.412       .  A
C3967      C3976   1.404       .  A
C3968      H3984   1.109       .  S
C3968      H3985   1.111       .  S
C3968      H3986   1.111       .  S
C3970      H3981   1.110       .  S
C3970      H3982   1.111       .  S
C3970      H3983   1.109       .  S
C3972      C3973   1.399       .  A
C3972      C3977   1.509       .  S
C3973      C3974   1.404       .  A
C3973      H3978   1.084       .  S
C3974      C3975   1.416       .  A
C3975      C3976   1.408       .  A
C3975      C3979   1.506       .  S
C3976      H3980   1.085       .  S
C3977      H3987   1.111       .  S
C3977      H3988   1.109       .  S
C3977      H3989   1.110       .  S
C3979      H3990   1.110       .  S
C3979      H3991   1.110       .  S
C3979      H3992   1.111       .  S
C3993      C3994   1.404       .  A
C3993      C3998   1.405       .  A
C3993      H4003   1.083       .  S
C3994      C3999   1.490       .  S
C3994      C3995   1.416       .  A
C3995      C3996   1.406       .  A
C3995      C4000   1.508       .  S
C3996      C3997   1.401       .  A
C3996      H4001   1.085       .  S
C3997      C3998   1.413       .  A
C3998      C4002   1.508       .  S
C3999      C4004   1.413       .  A
C3999      C4008   1.403       .  A
C4000      H4016   1.109       .  S
C4000      H4017   1.110       .  S
C4000      H4018   1.111       .  S
C4002      H4013   1.110       .  S
C4002      H4014   1.110       .  S
C4002      H4015   1.110       .  S
C4004      C4005   1.403       .  A
C4004      C4009   1.508       .  S
C4005      C4006   1.406       .  A
C4005      H4010   1.084       .  S
C4006      C4007   1.420       .  A
C4007      C4008   1.409       .  A
C4007      C4011   1.508       .  S
C4008      H4012   1.083       .  S
C4009      H4019   1.111       .  S
C4009      H4020   1.109       .  S
C4009      H4021   1.110       .  S
C4011      H4022   1.110       .  S
C4011      H4023   1.103       .  S
C4011      H4024   1.111       .  S
C4025      C4026   1.400       .  A
C4025      C4030   1.402       .  A
C4025      H4035   1.084       .  S
C4026      C4031   1.484       .  S
C4026      C4027   1.413       .  A
C4027      C4028   1.409       .  A
C4027      C4032   1.505       .  S
C4028      C4029   1.404       .  A
C4028      H4033   1.084       .  S
C4029      C4030   1.414       .  A
C4030      C4034   1.508       .  S
C4031      C4036   1.411       .  A
C4031      C4040   1.400       .  A
C4032      H4048   1.110       .  S
C4032      H4049   1.110       .  S
C4032      H4050   1.111       .  S
C4034      H4045   1.110       .  S
C4034      H4046   1.111       .  S
C4034      H4047   1.109       .  S
C4036      C4037   1.408       .  A
C4036      C4041   1.505       .  S
C4037      C4038   1.405       .  A
C4037      H4042   1.085       .  S
C4038      C4039   1.418       .  A
C4039      C4040   1.402       .  A
C4039      C4043   1.509       .  S
C4040      H4044   1.085       .  S
C4041      H4051   1.111       .  S
C4041      H4052   1.110       .  S
C4041      H4053   1.110       .  S
C4043      H4054   1.110       .  S
C4043      H4055   1.106       .  S
C4043      H4056   1.111       .  S
C4057      C4058   1.397       .  A
C4057      C4062   1.404       .  A
C4057      H4067   1.084       .  S
C4058      C4063   1.480       .  S
C4058      C4059   1.408       .  A
C4059      C4060   1.404       .  A
C4059      C4064   1.507       .  S
C4060      C4061   1.410       .  A
C4060      H4065   1.083       .  S
C4061      C4062   1.426       .  A
C4062      C4066   1.509       .  S
C4063      C4068   1.409       .  A
C4063      C4072   1.399       .  A
C4064      H4080   1.110       .  S
C4064      H4081   1.110       .  S
C4064      H4082   1.111       .  S
C4066      H4077   1.110       .  S
C4066      H4078   1.111       .  S
C4066      H4079   1.110       .  S
C4068      C4069   1.403       .  A
C4068      C4073   1.506       .  S
C4069      C4070   1.407       .  A
C4069      H4074   1.085       .  S
C4070      C4071   1.420       .  A
C4071      C4072   1.404       .  A
C4071      C4075   1.508       .  S
C4072      H4076   1.086       .  S
C4073      H4083   1.111       .  S
C4073      H4084   1.110       .  S
C4073      H4085   1.110       .  S
C4075      H4086   1.109   1_554  S
C4075      H4087   1.109   1_554  S
C4075      H4088   1.111       .  S
C4089      C4090   1.401       .  A
C4089      C4094   1.402       .  A
C4089      H4099   1.085       .  S
C4090      C4095   1.480       .  S
C4090      C4091   1.410       .  A
C4091      C4092   1.404       .  A
C4091      C4096   1.505       .  S
C4092      C4093   1.405       .  A
C4092      H4097   1.085       .  S
C4093      C4094   1.417       .  A
C4094      C4098   1.508       .  S
C4095      C4100   1.411       .  A
C4095      C4104   1.403       .  A
C4096      H4112   1.110       .  S
C4096      H4113   1.110       .  S
C4096      H4114   1.111       .  S
C4098      H4109   1.110       .  S
C4098      H4110   1.111       .  S
C4098      H4111   1.109       .  S
C4100      C4101   1.397       .  A
C4100      C4105   1.509       .  S
C4101      C4102   1.402       .  A
C4101      H4106   1.083       .  S
C4102      C4103   1.419       .  A
C4103      C4104   1.411       .  A
C4103      C4107   1.508       .  S
C4104      H4108   1.083       .  S
C4105      H4115   1.110       .  S
C4105      H4116   1.110       .  S
C4105      H4117   1.110       .  S
C4107      H4118   1.110       .  S
C4107      H4119   1.110       .  S
C4107      H4120   1.111       .  S
C4121      C4122   1.400       .  A
C4121      C4126   1.405       .  A
C4121      H4131   1.085       .  S
C4122      C4127   1.481       .  S
C4122      C4123   1.407       .  A
C4123      C4124   1.404       .  A
C4123      C4128   1.506       .  S
C4124      C4125   1.408       .  A
C4124      H4129   1.085       .  S
C4125      C4126   1.421       .  A
C4126      C4130   1.508       .  S
C4127      C4132   1.410       .  A
C4127      C4136   1.402       .  A
C4128      H4144   1.110       .  S
C4128      H4145   1.109       .  S
C4128      H4146   1.111       .  S
C4130      H4141   1.110       .  S
C4130      H4142   1.111       .  S
C4130      H4143   1.110       .  S
C4132      C4133   1.400       .  A
C4132      C4137   1.509       .  S
C4133      C4134   1.406       .  A
C4133      H4138   1.085       .  S
C4134      C4135   1.418       .  A
C4135      C4136   1.408       .  A
C4135      C4139   1.507       .  S
C4136      H4140   1.083       .  S
C4137      H4147   1.111       .  S
C4137      H4148   1.110       .  S
C4137      H4149   1.109       .  S
C4139      H4150   1.111       .  S
C4139      H4151   1.110       .  S
C4139      H4152   1.110       .  S
C4153      C4154   1.397       .  A
C4153      C4158   1.398       .  A
C4153      H4163   1.085       .  S
C4154      C4159   1.484       .  S
C4154      C4155   1.411       .  A
C4155      C4156   1.411       .  A
C4155      C4160   1.506       .  S
C4156      C4157   1.409       .  A
C4156      H4161   1.083       .  S
C4157      C4158   1.420       .  A
C4158      C4162   1.507       .  S
C4159      C4164   1.414       .  A
C4159      C4168   1.405       .  A
C4160      H4176   1.110       .  S
C4160      H4177   1.107       .  S
C4160      H4178   1.111       .  S
C4162      H4173   1.111       .  S
C4162      H4174   1.106       .  S
C4162      H4175   1.109       .  S
C4164      C4165   1.401       .  A
C4164      C4169   1.509       .  S
C4165      C4166   1.402       .  A
C4165      H4170   1.085       .  S
C4166      C4167   1.413       .  A
C4167      C4168   1.408       .  A
C4167      C4171   1.507       .  S
C4168      H4172   1.084       .  S
C4169      H4179   1.111       .  S
C4169      H4180   1.110       .  S
C4169      H4181   1.107       .  S
C4171      H4182   1.111       .  S
C4171      H4183   1.109       .  S
C4171      H4184   1.111       .  S
C4185      C4186   1.395       .  A
C4185      C4190   1.403       .  A
C4185      H4195   1.084       .  S
C4186      C4191   1.470       .  S
C4186      C4187   1.407       .  A
C4187      C4188   1.399       .  A
C4187      C4192   1.509       .  S
C4188      C4189   1.409       .  A
C4188      H4193   1.084       .  S
C4189      C4190   1.425       .  A
C4190      C4194   1.509       .  S
C4191      C4196   1.409       .  A
C4191      C4200   1.399       .  A
C4192      H4208   1.111       .  S
C4192      H4209   1.110       .  S
C4192      H4210   1.111       .  S
C4194      H4205   1.110       .  S
C4194      H4206   1.111       .  S
C4194      H4207   1.110       .  S
C4196      C4197   1.402       .  A
C4196      C4201   1.505       .  S
C4197      C4198   1.401       .  A
C4197      H4202   1.086       .  S
C4198      C4199   1.412       .  A
C4199      C4200   1.396       .  A
C4199      C4203   1.510       .  S
C4200      H4204   1.086       .  S
C4201      H4211   1.111       .  S
C4201      H4212   1.110       .  S
C4201      H4213   1.110       .  S
C4203      H4214   1.111       .  S
C4203      H4215   1.110       .  S
C4203      H4216   1.109       .  S
C4217      C4218   1.400       .  A
C4217      C4222   1.403       .  A
C4217      H4227   1.083       .  S
C4218      C4223   1.474   1_565  S
C4218      C4219   1.408       .  A
C4219      C4220   1.400       .  A
C4219      C4224   1.506       .  S
C4220      C4221   1.404       .  A
C4220      H4225   1.082       .  S
C4221      C4222   1.417       .  A
C4222      C4226   1.508       .  S
C4223      C4228   1.409       .  A
C4223      C4232   1.399       .  A
C4224      H4240   1.110       .  S
C4224      H4241   1.110       .  S
C4224      H4242   1.110       .  S
C4226      H4237   1.109       .  S
C4226      H4238   1.111       .  S
C4226      H4239   1.110       .  S
C4228      C4229   1.398       .  A
C4228      C4233   1.508       .  S
C4229      C4230   1.405       .  A
C4229      H4234   1.082       .  S
C4230      C4231   1.419       .  A
C4231      C4232   1.405       .  A
C4231      C4235   1.508       .  S
C4232      H4236   1.085       .  S
C4233      H4243   1.111       .  S
C4233      H4244   1.110   1_545  S
C4233      H4245   1.110   1_545  S
C4235      H4246   1.109       .  S
C4235      H4247   1.111       .  S
C4235      H4248   1.111       .  S
