geometry optimzed in LAMMPS
_audit_creation_date              2020-11-30 
_audit_creation_method            'lammps2cif' 
_symmetry_space_group_name_H-M    'P1' 
_symmetry_Int_Tables_number       1 
_symmetry_cell_setting            triclinic 
loop_ 
_symmetry_equiv_pos_as_xyz 
  x,y,z 
_cell_length_a                    24.609884501547153 
_cell_length_b                    24.806830183254426 
_cell_length_c                    48.39882467533608 
_cell_angle_alpha                 88.53099475167397 
_cell_angle_beta                  91.28980118758246 
_cell_angle_gamma                 92.25631821720854 
loop_ 
_atom_site_label 
_atom_site_type_symbol 
_atom_site_fract_x 
_atom_site_fract_y 
_atom_site_fract_z 
_atom_site_charge 
O1          O  0.14404662  0.80921320  0.02605480    -0.81130
O2          O  0.90771156  0.80013946  0.49158796    -0.65820
O3          O  0.03610723  0.78472551  0.03450578    -1.12420
C4          C  0.05313050  0.63484888  0.47454586     1.05760
O5          O  0.89294136  0.71398411  0.50569800    -0.79030
O6          O  0.96126852  0.63019054  0.01918474    -0.66610
Ni7        Ni  0.08545422  0.84311807  0.04157811     1.34870
C8          C  0.00033371  0.62838040  0.03682227     0.84500
O9          O  0.96099602  0.87163520  0.02700848    -0.79560
O10         O  0.02866214  0.87913210  0.05782470    -0.89840
C11         C  0.87584802  0.75935312  0.49692024     0.84070
O12         O  0.07859030  0.88291969  0.50679214    -0.68040
O13         O  0.00213542  0.63897427  0.46932253    -0.87330
C14         C  0.05327453  0.87305845  0.48410572     0.84900
C15         C  0.99085360  0.90032673  0.04380785     1.06470
H16         H  0.00688419  0.74482582  0.47589105     0.38270
O17         O  0.99537350  0.73440000  0.49427614    -1.09990
O18         O  0.03250485  0.66933004  0.04079224    -0.66640
Ni19       Ni  0.05906428  0.72421013  0.51430243     1.26350
O20         O  0.01357986  0.83837067  0.48282186    -0.66870
O21         O  0.07985418  0.66507542  0.49176692    -0.79160
C22         C  0.15731055  0.76083014  0.02942012     0.84280
O23         O  0.12401830  0.72229109  0.03446191    -0.66340
Ni24       Ni  0.94719631  0.67660128  0.48767660     1.27450
Ni25       Ni  0.97460212  0.79947424  0.01187473     1.26060
H26         H  0.02309847  0.77128237  0.05216802     0.38830
O27         O  0.38737636  0.67119720  0.00273538    -0.81130
O28         O  0.62685010  0.67468059  0.50630485    -0.65820
O29         O  0.48285986  0.69257575  0.02868165    -1.12420
C30         C  0.49959169  0.84068558  0.46352435     1.05760
O31         O  0.62965131  0.75782090  0.52188820    -0.79030
O32         O  0.56458158  0.84527588  0.02099434    -0.66610
Ni33       Ni  0.43047974  0.63515161  0.02959942     1.34870
C34         C  0.51897062  0.84765492  0.03250677     0.84500
O35         O  0.55654123  0.60626525  0.03685923    -0.79560
O36         O  0.47387368  0.59646497  0.05562996    -0.89840
C37         C  0.65392216  0.71783285  0.51288299     0.84070
O38         O  0.45418854  0.59196215  0.50061795    -0.68040
O39         O  0.55142414  0.83800881  0.46654960    -0.87330
C40         C  0.48822696  0.60099126  0.48166332     0.84900
C41         C  0.52049217  0.57866638  0.05092653     1.06470
H42         H  0.54071104  0.73087369  0.47480127     0.38270
O43         O  0.54230567  0.74137756  0.49388896    -1.09990
O44         O  0.48370539  0.80850603  0.03122444    -0.66640
Ni45       Ni  0.47182918  0.75299987  0.50327537     1.26350
O46         O  0.52744401  0.63610475  0.48415181    -0.66870
O47         O  0.46477916  0.81086836  0.47671978    -0.79160
C48         C  0.36936201  0.71641857  0.00804279     0.84280
O49         O  0.39972960  0.75743170  0.01190261    -0.66340
Ni50       Ni  0.59269918  0.79882155  0.49433676     1.27450
Ni51       Ni  0.55239962  0.67651685  0.01643832     1.26060
H52         H  0.48689265  0.70619103  0.04717270     0.38830
O53         O  0.21491924  0.85846409  0.33193348    -0.81130
O54         O  0.20287586  0.10596455  0.35876157    -0.65820
O55         O  0.22097946  0.97006676  0.32629173    -1.12420
C56         C  0.37134515  0.97308706  0.39189895     1.05760
O57         O  0.28928752  0.11909050  0.34662394    -0.79030
O58         O  0.37776307  0.05316164  0.34425217    -0.66610
Ni59       Ni  0.16505639  0.91452910  0.32663956     1.34870
C60         C  0.37810566  0.01720006  0.32603024     0.84500
O61         O  0.13833090  0.04842017  0.32278354    -0.79560
O62         O  0.10704632  0.96279924  0.32134605    -0.89840
C63         C  0.24403606  0.13732521  0.35345257     0.84070
O64         O  0.15656584  0.91534673  0.36548901    -0.68040
O65         O  0.36129224  0.02235030  0.39613707    -0.87330
C66         C  0.14719188  0.95459137  0.38079813     0.84900
C67         C  0.09960593  0.01301901  0.31920073     1.06470
H68         H  0.25754870  0.00863916  0.38399514     0.38270
O69         O  0.26917556  0.01942489  0.36567182    -1.09990
O70         O  0.33552449  0.98791904  0.32091368    -0.66640
Ni71       Ni  0.28617236  0.95690605  0.34835739     1.26350
O72         O  0.16095786  0.00372192  0.37413082    -0.66870
O73         O  0.34862934  0.94551416  0.37243787    -0.79160
C74         C  0.26596564  0.85452886  0.33145233     0.84280
O75         O  0.29939965  0.89369871  0.33090552    -0.66340
Ni76       Ni  0.32545011  0.07123425  0.37131826     1.27450
Ni77       Ni  0.20546605  0.03565568  0.34387913     1.26060
H78         H  0.23063743  0.97819859  0.30738339     0.38830
O79         O  0.33892006  0.61909810  0.36557063    -0.81130
O80         O  0.32195574  0.38843967  0.34889814    -0.65820
O81         O  0.30553037  0.53724068  0.33493668    -1.12420
C82         C  0.16677569  0.50568352  0.40123397     1.05760
O83         O  0.23623285  0.39042805  0.33345833    -0.79030
O84         O  0.15334597  0.46401151  0.33417585    -0.66610
Ni85       Ni  0.36616721  0.58572531  0.33464639     1.34870
C86         C  0.15118573  0.51471388  0.32992721     0.84500
O87         O  0.39152050  0.46492315  0.32217161    -0.79560
O88         O  0.39380191  0.54853113  0.30458996    -0.89840
C89         C  0.27696852  0.36379378  0.34206126     0.84070
O90         O  0.41383899  0.54968786  0.35977515    -0.68040
O91         O  0.15850928  0.45899994  0.39052805    -0.87330
C92         C  0.40263262  0.51643245  0.37922781     0.84900
C93         C  0.41725767  0.50457207  0.30949405     1.06470
H94         H  0.27011880  0.46032218  0.38471278     0.38270
O95         O  0.25827457  0.46844924  0.36595013    -1.09990
O96         O  0.18979381  0.54688404  0.33775504    -0.66640
Ni97       Ni  0.25184631  0.54214943  0.36346271     1.26350
O98         O  0.36444030  0.48024131  0.37641003    -0.66870
O99         O  0.20188688  0.54122261  0.39263564    -0.79160
C100        C  0.29546124  0.64271677  0.36112889     0.84280
O101        O  0.25056625  0.61707344  0.36102779    -0.66340
Ni102      Ni  0.19596855  0.42395523  0.36114380     1.27450
Ni103      Ni  0.32136425  0.46447703  0.34271671     1.26060
H104        H  0.28735049  0.53935757  0.31705125     0.38830
O105        O  0.81504918  0.37442360  0.29367740    -0.81130
O106        O  0.82239372  0.62023101  0.25082149    -0.65820
O107        O  0.80727070  0.48565523  0.29065481    -1.12420
C108        C  0.66907657  0.45856886  0.21933780     1.05760
O109        O  0.73258523  0.62118863  0.25686988    -0.79030
O110        O  0.64943241  0.54614491  0.25905958    -0.66610
Ni111      Ni  0.86418275  0.43566687  0.29465552     1.34870
C112        C  0.64782010  0.51696396  0.28090025     0.84500
O113        O  0.89059990  0.57183064  0.28994062    -0.79560
O114        O  0.92199744  0.48911422  0.29656991    -0.89840
C115        C  0.77863155  0.64568973  0.25471031     0.84070
O116        O  0.87329378  0.43168498  0.25583017    -0.68040
O117        O  0.67867707  0.50761772  0.21154276    -0.87330
C118        C  0.88328578  0.46974111  0.23830573     0.84900
C119        C  0.92976143  0.53986048  0.29559504     1.06470
H120        H  0.77736303  0.50942221  0.23014667     0.38270
O121        O  0.76276387  0.52270641  0.24689121    -1.09990
O122        O  0.69012303  0.49367044  0.29024148    -0.66640
Ni123      Ni  0.74497714  0.46166079  0.26792395     1.26350
O124        O  0.87032779  0.51879004  0.24189008    -0.66870
O125        O  0.68785921  0.43766908  0.24202076    -0.79160
C126        C  0.76403704  0.36525270  0.29395496     0.84280
O127        O  0.72999875  0.40110638  0.29026450    -0.66340
Ni128      Ni  0.70638846  0.56530614  0.23388232     1.27450
Ni129      Ni  0.82326559  0.55007951  0.26913569     1.26060
H130        H  0.79540467  0.49519550  0.30869449     0.38830
O131        O  0.70741197  0.13333506  0.24977650    -0.81130
O132        O  0.70105172  0.89667734  0.25457270    -0.65820
O133        O  0.72455098  0.04142389  0.27702634    -1.12420
C134        C  0.86989606  0.03688957  0.21283174     1.05760
O135        O  0.78838110  0.89445470  0.26752425    -0.79030
O136        O  0.87515271  0.96624274  0.27005201    -0.66610
Ni137      Ni  0.66945454  0.09118648  0.27649712     1.34870
C138        C  0.87721552  0.01005925  0.28298191     0.84500
O139        O  0.63221989  0.96592068  0.28329403    -0.79560
O140        O  0.63221978  0.04654029  0.30266780    -0.89840
C141        C  0.74465952  0.87058379  0.25918109     0.84070
O142        O  0.62447126  0.06465379  0.24681529    -0.68040
O143        O  0.86639628  0.98516578  0.21530749    -0.87330
C144        C  0.63334549  0.03172044  0.22801506     0.84900
C145        C  0.60689984  0.00342821  0.29563164     1.06470
H146        H  0.75905040  0.98756489  0.22389705     0.38270
O147        O  0.77061390  0.98534497  0.24305110    -1.09990
O148        O  0.83934393  0.04368506  0.28142235    -0.66640
Ni149      Ni  0.78469487  0.05646798  0.25270014     1.26350
O150        O  0.66640887  0.99381720  0.23156599    -0.66870
O151        O  0.84194013  0.06808537  0.22702111    -0.79160
C152        C  0.75046364  0.15617263  0.25871748     0.84280
O153        O  0.79243402  0.12926266  0.26241895    -0.66340
Ni154      Ni  0.82763066  0.93852353  0.24169562     1.27450
Ni155      Ni  0.70529849  0.97133024  0.26479688     1.26060
H156        H  0.73864190  0.03826288  0.29577683     0.38830
O157        O  0.13734232  0.29828392  0.09658450    -0.81130
O158        O  0.89872162  0.33385389  0.08741805    -0.65820
O159        O  0.03286179  0.28868392  0.11366282    -1.12420
C160        C  0.99125271  0.13610279  0.05644009     1.05760
O161        O  0.86560954  0.25188085  0.09652365    -0.79030
O162        O  0.92125177  0.16438595  0.10720671    -0.66610
Ni163      Ni  0.09127711  0.33770149  0.12053066     1.34870
C164        C  0.96172416  0.16029167  0.12361353     0.84500
O165        O  0.96303373  0.36779615  0.12808974    -0.79560
O166        O  0.04765032  0.37456983  0.14663996    -0.89840
C167        C  0.85962945  0.30206305  0.09285529     0.84070
O168        O  0.07443707  0.39518519  0.09372063    -0.68040
O169        O  0.94439568  0.15583852  0.05337616    -0.87330
C170        C  0.03193078  0.40473677  0.07892283     0.84900
C171        C  0.99683981  0.38465464  0.14657950     1.06470
H172        H  0.97482880  0.26955011  0.05708099     0.38270
O173        O  0.96922543  0.25504603  0.07556188    -1.09990
O174        O  0.00747016  0.18440359  0.11972140    -0.66640
Ni175      Ni  0.03576488  0.22839960  0.08947261     1.26350
O176        O  0.99510088  0.36789575  0.07489007    -0.66870
O177        O  0.03199605  0.16285446  0.06742068    -0.79160
C178        C  0.14570904  0.24756669  0.10030321     0.84280
O179        O  0.10680651  0.21222637  0.10204431    -0.66340
Ni180      Ni  0.90744239  0.20642794  0.07457711     1.27450
Ni181      Ni  0.96640319  0.31359243  0.10075758     1.26060
H182        H  0.02559209  0.27403639  0.13193600     0.38830
O183        O  0.64893487  0.21383418  0.08350065    -0.81130
O184        O  0.40054368  0.16062477  0.10390733    -0.65820
O185        O  0.53695313  0.20132348  0.07152666    -1.12420
C186        C  0.53686186  0.33067801  0.14336347     1.05760
O187        O  0.38707979  0.24860365  0.09693554    -0.79030
O188        O  0.45116499  0.34407592  0.09908587    -0.66610
Ni189      Ni  0.59839181  0.15767818  0.07113097     1.34870
C190        C  0.48417695  0.35140647  0.07946622     0.84500
O191        O  0.46692694  0.10420813  0.06861217    -0.79560
O192        O  0.55520065  0.09692161  0.05911021    -0.89840
C193        C  0.36872584  0.20071226  0.10207872     0.84070
O194        O  0.59398821  0.13160020  0.10852891    -0.68040
O195        O  0.48780026  0.31454428  0.14854136    -0.87330
C196        C  0.55458715  0.11884876  0.12429688     0.84900
C197        C  0.50751035  0.07593998  0.06155668     1.06470
H198        H  0.50195138  0.22054944  0.13002284     0.38270
O199        O  0.48791944  0.23417825  0.11253972    -1.09990
O200        O  0.50817225  0.31141051  0.07014641    -0.66640
Ni201      Ni  0.54786871  0.26313082  0.09447893     1.26350
O202        O  0.50542720  0.12994021  0.11843912    -0.66870
O203        O  0.56092999  0.31958243  0.12105833    -0.79160
C204        C  0.64940037  0.26477292  0.07999782     0.84280
O205        O  0.60724969  0.28950720  0.07484533    -0.66340
Ni206      Ni  0.43586875  0.28202806  0.12284766     1.27450
Ni207      Ni  0.47257272  0.17289696  0.08912148     1.26060
H208        H  0.52785075  0.21285949  0.05280914     0.38830
C209        C  0.20165364  0.22886229  0.10290167    -0.00390
C210        C  0.22039471  0.19261877  0.08373850    -0.12270
C211        C  0.27442484  0.17632444  0.08506350     0.01840
C212        C  0.30982638  0.19567078  0.10614574    -0.00480
C213        C  0.28947815  0.22825728  0.12655261    -0.12210
C214        C  0.23604294  0.24525708  0.12498075     0.01730
H215        H  0.19369772  0.17939071  0.06691250     0.14710
H216        H  0.31684498  0.24410480  0.14254242     0.14710
C217        C  0.21774890  0.28053445  0.14587380     0.36360
C218        C  0.29401128  0.14387624  0.06332700     0.36270
N219        N  0.20297159  0.30877251  0.16258512    -0.43980
N220        N  0.30990972  0.11793317  0.04592132    -0.43980
C221        C  0.69819145  0.29579954  0.08632083    -0.00390
C222        C  0.72076140  0.28885188  0.11284582    -0.12270
C223        C  0.77499927  0.30280840  0.11761215     0.01840
C224        C  0.80601152  0.32194427  0.09516949    -0.00480
C225        C  0.78082827  0.33893503  0.07040865    -0.12210
C226        C  0.72611941  0.32571239  0.06575716     0.01730
H227        H  0.69780684  0.26730965  0.12882446     0.14710
H228        H  0.80513239  0.35378648  0.05321193     0.14710
C229        C  0.70209001  0.33581420  0.03870337     0.36360
C230        C  0.80027148  0.28749449  0.14376460     0.36270
N231        N  0.68283068  0.34390479  0.01703312    -0.43980
N232        N  0.82086728  0.27475664  0.16452113    -0.43980
C233        C  0.60588472  0.04175718  0.20080978    -0.00390
C234        C  0.55929918  0.07316359  0.20002896    -0.12270
C235        C  0.54012937  0.09692001  0.17529703     0.01840
C236        C  0.56766081  0.08927755  0.15051955    -0.00480
C237        C  0.61148393  0.05456423  0.15099371    -0.12210
C238        C  0.63043783  0.03045756  0.17561805     0.01730
H239        H  0.53951432  0.08188187  0.21913110     0.14710
H240        H  0.63249739  0.04762724  0.13211239     0.14710
C241        C  0.67734411  0.99749099  0.17430389     0.36360
C242        C  0.49512658  0.13237455  0.17653421     0.36270
N243        N  0.71477052  0.97097306  0.17280575    -0.43980
N244        N  0.45912673  0.16082611  0.17768815    -0.43980
C245        C  0.95327822  0.12678476  0.14870404    -0.00390
C246        C  0.94484784  0.07087344  0.14615282    -0.12270
C247        C  0.92227723  0.03913830  0.16773939     0.01840
C248        C  0.90642795  0.06401222  0.19213571    -0.00480
C249        C  0.92008792  0.11932052  0.19540747    -0.12210
C250        C  0.94295469  0.15071788  0.17394894     0.01730
H251        H  0.95316618  0.05248001  0.12666522     0.14710
H252        H  0.90994798  0.13905929  0.21425272     0.14710
C253        C  0.95069294  0.20823874  0.17741401     0.36360
C254        C  0.91300673  0.98216152  0.16340001     0.36270
N255        N  0.95662100  0.25431407  0.18019506    -0.43980
N256        N  0.90612704  0.93643711  0.15980694    -0.43980
C257        C  0.63464079  0.42431903  0.20105884    -0.00390
C258        C  0.57988502  0.43635279  0.19639943    -0.12270
C259        C  0.54663137  0.40574204  0.17822474     0.01840
C260        C  0.56867362  0.36295855  0.16395196    -0.00480
C261        C  0.62364268  0.35127306  0.16873940    -0.12210
C262        C  0.65643079  0.38123541  0.18724252     0.01730
H263        H  0.56317869  0.46983971  0.20693138     0.14710
H264        H  0.64101764  0.31846288  0.15802473     0.14710
C265        C  0.71293991  0.36871159  0.19108348     0.36360
C266        C  0.49093393  0.42055281  0.17375187     0.36270
N267        N  0.75836969  0.35963836  0.19455097    -0.43980
N268        N  0.44631230  0.43258871  0.17019315    -0.43980
C269        C  0.91481716  0.45510248  0.21396011    -0.00390
C270        C  0.96174021  0.42545928  0.21898236    -0.12270
C271        C  0.99190299  0.40640790  0.19733297     0.01840
C272        C  0.97391840  0.41461977  0.16968554    -0.00480
C273        C  0.92748634  0.44539907  0.16459561    -0.12210
C274        C  0.89834374  0.46611026  0.18639680     0.01730
H275        H  0.97493167  0.41701804  0.24014769     0.14710
H276        H  0.91285020  0.45184333  0.14350608     0.14710
C277        C  0.84964765  0.49489668  0.17998603     0.36360
C278        C  0.03925057  0.37587376  0.20435027     0.36270
N279        N  0.81052965  0.51777396  0.17467275    -0.43980
N280        N  0.07732432  0.35163892  0.21003800    -0.43980
C281        C  0.77721255  0.70425649  0.25797251    -0.00390
C282        C  0.79809356  0.73892381  0.23726051    -0.12270
C283        C  0.78407934  0.79311769  0.23599417     0.01840
C284        C  0.74784371  0.81271450  0.25534500    -0.00480
C285        C  0.72774752  0.77838354  0.27624208    -0.12210
C286        C  0.74250361  0.72474989  0.27794189     0.01730
H287        H  0.82345502  0.72328639  0.22151440     0.14710
H288        H  0.70248593  0.79415526  0.29201657     0.14710
C289        C  0.72124126  0.69143370  0.30049354     0.36360
C290        C  0.80736195  0.82808638  0.21468502     0.36270
N291        N  0.70393058  0.66488667  0.31849697    -0.43980
N292        N  0.82609181  0.85604607  0.19761151    -0.43980
C293        C  0.74484771  0.31001841  0.29221057    -0.00390
C294        C  0.71349474  0.29825090  0.26844445    -0.12270
C295        C  0.71534167  0.24808464  0.25685250     0.01840
C296        C  0.74760817  0.20901522  0.26988397    -0.00480
C297        C  0.77370248  0.21878821  0.29539216    -0.12210
C298        C  0.77229051  0.26935846  0.30677202     0.01730
H299        H  0.69331684  0.33004281  0.25689402     0.14710
H300        H  0.79602808  0.18735989  0.30608126     0.14710
C301        C  0.80189428  0.27990380  0.33229796     0.36360
C302        C  0.68832424  0.23960488  0.23035808     0.36270
N303        N  0.82546609  0.28843537  0.35277948    -0.43980
N304        N  0.66698072  0.23283178  0.20910471    -0.43980
C305        C  0.59325495  0.50982841  0.29423174    -0.00390
C306        C  0.56592396  0.55634010  0.30021309    -0.12270
C307        C  0.51008091  0.55467702  0.30577724     0.01840
C308        C  0.47817092  0.50528081  0.30466306    -0.00480
C309        C  0.50619145  0.45793377  0.30019222    -0.12210
C310        C  0.56284696  0.45989468  0.29485473     0.01730
H311        H  0.58829165  0.59493971  0.29975806     0.14710
H312        H  0.48360843  0.41953307  0.29995326     0.14710
C313        C  0.58789816  0.41032314  0.28846771     0.36360
C314        C  0.48750648  0.60516067  0.31313128     0.36270
N315        N  0.60714896  0.37003198  0.28343582    -0.43980
N316        N  0.46976554  0.64567456  0.31912091    -0.43980
C317        C  0.09898608  0.53724312  0.31798760    -0.00390
C318        C  0.08074101  0.52570442  0.29103464    -0.12270
C319        C  0.02786559  0.53888289  0.28164092     0.01840
C320        C  0.98883727  0.55730800  0.30005438    -0.00480
C321        C  0.00842912  0.57286741  0.32629093    -0.12210
C322        C  0.06361306  0.56628595  0.33449117     0.01730
H323        H  0.10799092  0.50710964  0.27714033     0.14710
H324        H  0.98036732  0.58847105  0.34077506     0.14710
C325        C  0.08313977  0.59067374  0.35970436     0.36360
C326        C  0.01541022  0.53659723  0.25248265     0.36270
N327        N  0.09886340  0.61248907  0.37933217    -0.43980
N328        N  0.00717526  0.53777849  0.22885716    -0.43980
C329        C  0.04163494  0.02706820  0.31392686    -0.00390
C330        C  0.00197133  0.99819628  0.32968676    -0.12270
C331        C  0.94685391  0.99548760  0.32139609     0.01840
C332        C  0.92950899  0.02412758  0.29757286    -0.00480
C333        C  0.96813699  0.05674819  0.28309735    -0.12210
C334        C  0.02387875  0.05763747  0.29070713     0.01730
H335        H  0.01484727  0.97403387  0.34747528     0.14710
H336        H  0.95554128  0.07744068  0.26413174     0.14710
C337        C  0.06219661  0.08410438  0.27225434     0.36360
C338        C  0.90956947  0.95993978  0.33644928     0.36270
N339        N  0.09232315  0.10473911  0.25691065    -0.43980
N340        N  0.87975324  0.93122937  0.34844091    -0.43980
C341        C  0.54556283  0.00335385  0.29945603    -0.00390
C342        C  0.51351594  0.95622663  0.30493441    -0.12270
C343        C  0.45734635  0.95867508  0.31119906     0.01840
C344        C  0.43158340  0.00916727  0.31207554    -0.00480
C345        C  0.46283290  0.05537483  0.30473299    -0.12210
C346        C  0.51797753  0.05316077  0.29815747     0.01730
H347        H  0.53271248  0.91761281  0.30547595     0.14710
H348        H  0.44425096  0.09432157  0.30497146     0.14710
C349        C  0.54469490  0.10395059  0.29012787     0.36360
C350        C  0.42872841  0.90860651  0.31816729     0.36270
N351        N  0.56564592  0.14485906  0.28377986    -0.43980
N352        N  0.40780164  0.86721540  0.32355107    -0.43980
C353        C  0.26821002  0.30548199  0.34611568    -0.00390
C354        C  0.23176428  0.27878179  0.32782817    -0.12270
C355        C  0.21868019  0.22403148  0.33147198     0.01840
C356        C  0.24159125  0.19553545  0.35395616    -0.00480
C357        C  0.27647821  0.22232585  0.37281722    -0.12210
C358        C  0.28997345  0.27710024  0.36913366     0.01730
H359        H  0.21442774  0.30052483  0.31021776     0.14710
H360        H  0.29525144  0.19968273  0.38972389     0.14710
C361        C  0.32556828  0.30284922  0.38936438     0.36360
C362        C  0.18531162  0.19719614  0.31072824     0.36270
N363        N  0.35418894  0.32304879  0.40568662    -0.43980
N364        N  0.15886444  0.17589117  0.29391382    -0.43980
C365        C  0.28677174  0.80239992  0.33579167    -0.00390
C366        C  0.27177056  0.76308423  0.31673816    -0.12270
C367        C  0.27619182  0.70936130  0.32429083     0.01840
C368        C  0.29796386  0.69641468  0.35065636    -0.00480
C369        C  0.31824018  0.73554331  0.36840674    -0.12210
C370        C  0.31046212  0.78890850  0.36175337     0.01730
H371        H  0.25249538  0.77422902  0.29713181     0.14710
H372        H  0.33416009  0.72409787  0.38875569     0.14710
C373        C  0.31672147  0.82622421  0.38408883     0.36360
C374        C  0.25535915  0.66862087  0.30554643     0.36270
N375        N  0.32014173  0.85319186  0.40323677    -0.43980
N376        N  0.23821245  0.63619758  0.29057180    -0.43980
C377        C  0.50808251  0.90049628  0.04622155    -0.00390
C378        C  0.55309525  0.92893213  0.05748314    -0.12270
C379        C  0.55232884  0.98407301  0.06306869     0.01840
C380        C  0.50472104  0.01466334  0.05771818    -0.00480
C381        C  0.45762065  0.98517581  0.04863791    -0.12210
C382        C  0.45904557  0.92894434  0.04279662     0.01730
H383        H  0.59091386  0.90826286  0.06061113     0.14710
H384        H  0.42034685  0.00630974  0.04491606     0.14710
C385        C  0.41038734  0.90221275  0.03192254     0.36360
C386        C  0.60334614  0.00761685  0.07332541     0.36270
N387        N  0.37122622  0.88088840  0.52321187    -0.43980
N388        N  0.64498417  0.02579159  0.08079568    -0.43980
C389        C  0.52769551  0.52091584  0.05970335    -0.00390
C390        C  0.53138400  0.48173124  0.03920591    -0.12270
C391        C  0.51832457  0.42631070  0.04478111     0.01840
C392        C  0.50011732  0.40900152  0.07122200    -0.00480
C393        C  0.49980105  0.44800754  0.09195136    -0.12210
C394        C  0.51337831  0.50276802  0.08651968     0.01730
H395        H  0.54068900  0.49489623  0.01823938     0.14710
H396        H  0.48841002  0.43576684  0.11274708     0.14710
C397        C  0.51085250  0.54018031  0.10878873     0.36360
C398        C  0.52042850  0.38888101  0.02256313     0.36270
N399        N  0.50905085  0.57008881  0.12667714    -0.43980
N400        N  0.52204561  0.35895311  0.50467355    -0.43980
C401        C  0.43424973  0.52515249  0.40576137    -0.00390
C402        C  0.47719172  0.56485062  0.40547508    -0.12270
C403        C  0.49775820  0.58847737  0.42975110     0.02160
C404        C  0.47805721  0.57026845  0.45563065    -0.00480
C405        C  0.44018298  0.52579398  0.45611593    -0.12210
C406        C  0.41750718  0.50402873  0.43168507     0.01730
H407        H  0.49188501  0.58130630  0.38592528     0.14710
H408        H  0.42506571  0.51019585  0.47574360     0.14710
C409        C  0.37422707  0.46335028  0.43413170     0.36360
C410        C  0.53412121  0.63527596  0.42687295     0.36270
N411        N  0.33929895  0.43102903  0.43638198    -0.43980
N412        N  0.56240877  0.67332683  0.42418083    -0.43980
C413        C  0.41110342  0.94590845  0.41019453    -0.00390
C414        C  0.44470138  0.90802847  0.39878605    -0.12270
C415        C  0.47750752  0.87565678  0.41571923     0.01840
C416        C  0.47700426  0.88127361  0.44451514    -0.00480
C417        C  0.44612982  0.92118543  0.45583517    -0.12210
C418        C  0.41324405  0.95354000  0.43901450     0.01730
H419        H  0.44377296  0.90227598  0.37668078     0.14710
H420        H  0.44575856  0.92526312  0.47806331     0.14710
C421        C  0.37894674  0.99078658  0.45217138     0.36360
C422        C  0.50825015  0.83456117  0.40333099     0.36270
N423        N  0.35144819  0.02046849  0.46281015    -0.43980
N424        N  0.53284090  0.80157245  0.39340215    -0.43980
C425        C  0.00960142  0.57425524  0.05121248    -0.00390
C426        C  0.96532901  0.53717447  0.05339088    -0.12270
C427        C  0.97149074  0.48270599  0.06143202     0.01840
C428        C  0.02378246  0.46195207  0.06748735    -0.00480
C429        C  0.06832246  0.49952924  0.06591340    -0.12210
C430        C  0.06188276  0.55443972  0.05784772     0.01730
H431        H  0.92482860  0.55084897  0.04840449     0.14710
H432        H  0.10880998  0.48596832  0.07089671     0.14710
C433        C  0.11039429  0.58850823  0.05571365     0.36360
C434        C  0.92154289  0.45126270  0.06398704     0.36270
N435        N  0.15020568  0.61469275  0.05438238    -0.43980
N436        N  0.87881418  0.43052742  0.06540658    -0.43980
C437        C  0.99500319  0.07721807  0.04914266    -0.00390
C438        C  0.94833348  0.04910370  0.03798914    -0.12270
C439        C  0.94489589  0.99214421  0.03615114     0.01840
C440        C  0.98863978  0.96106309  0.04557375    -0.00480
C441        C  0.03586680  0.98935290  0.05564047    -0.12210
C442        C  0.03945522  0.04584054  0.05751571     0.01730
H443        H  0.91311750  0.07146582  0.03149026     0.14710
H444        H  0.07117250  0.96717551  0.06224324     0.14710
C445        C  0.08908794  0.06957558  0.06911307     0.36360
C446        C  0.89523780  0.96669468  0.02560696     0.36270
N447        N  0.12910244  0.08784045  0.07854460    -0.43980
N448        N  0.85534024  0.94621891  0.01724059    -0.43980
C449        C  0.13519180  0.52229665  0.42489337    -0.00390
C450        C  0.16423518  0.55072725  0.44541193    -0.12270
C451        C  0.13855855  0.58545546  0.46265433     0.01840
C452        C  0.08192189  0.59260335  0.45962301    -0.00480
C453        C  0.05194352  0.55852709  0.44129873    -0.12210
C454        C  0.07807137  0.52316695  0.42416757     0.01730
H455        H  0.20824899  0.54881732  0.44657983     0.14710
H456        H  0.00815068  0.56103123  0.43933927     0.14710
C457        C  0.04599592  0.49228220  0.40436575     0.36360
C458        C  0.17286506  0.61416797  0.48221412     0.36270
N459        N  0.02028769  0.46754384  0.38848328    -0.43980
N460        N  0.20201345  0.63594676  0.49768646    -0.43980
C461        C  0.07231173  0.90115956  0.45786640    -0.00390
C462        C  0.05436434  0.88004570  0.43243306    -0.12270
C463        C  0.07616724  0.89913756  0.40735206     0.01840
C464        C  0.11767021  0.94049245  0.40691625    -0.00480
C465        C  0.13302241  0.96458910  0.43198806    -0.12210
C466        C  0.11079583  0.94557860  0.45726585     0.01730
H467        H  0.02420048  0.84698959  0.43203937     0.14710
H468        H  0.16392797  0.99697744  0.43200077     0.14710
C469        C  0.12850066  0.97262321  0.48213512     0.36360
C470        C  0.05479613  0.87522603  0.38222743     0.36270
N471        N  0.14256792  0.99452394  0.00203576    -0.43980
N472        N  0.03760806  0.85604652  0.36214197    -0.43980
C473        C  0.81778401  0.76384462  0.49730580    -0.00390
C474        C  0.78740545  0.73602399  0.47700019    -0.12270
C475        C  0.73415918  0.71770283  0.48199508     0.01840
C476        C  0.71151756  0.72703503  0.50779474    -0.00480
C477        C  0.74152810  0.75669612  0.02762420    -0.12210
C478        C  0.79432830  0.77525336  0.02255634     0.01730
H479        H  0.80651510  0.72570370  0.45794989     0.14710
H480        H  0.72356189  0.76523509  0.04724459     0.14710
C481        C  0.82525384  0.80177666  0.04442360     0.36360
C482        C  0.70382988  0.69036058  0.46030509     0.36270
N483        N  0.85003884  0.82271965  0.06199369    -0.43980
N484        N  0.68008856  0.66848299  0.44270345    -0.43980
C485        C  0.31362928  0.72077687  0.01197567    -0.00390
C486        C  0.28517950  0.75102338  0.49237258    -0.12270
C487        C  0.23311517  0.76489463  0.49784046     0.01840
C488        C  0.21100291  0.74847003  0.02341947    -0.00480
C489        C  0.23937922  0.71747936  0.04285102    -0.12210
C490        C  0.29126600  0.70310929  0.03717589     0.01730
H491        H  0.30412363  0.76458249  0.47323014     0.14710
H492        H  0.22122925  0.70527943  0.06237953     0.14710
C493        C  0.32162312  0.67287808  0.05783370     0.36360
C494        C  0.20310932  0.79455227  0.47680020     0.36270
N495        N  0.34588529  0.64877471  0.07440556    -0.43980
N496        N  0.17934900  0.81815398  0.45983987    -0.43980
O497        O  0.14404496  0.80921197  0.52605365    -0.81130
O498        O  0.90771311  0.80013991  0.99158848    -0.65820
O499        O  0.03610577  0.78472443  0.53450501    -1.12420
C500        C  0.05313268  0.63484978  0.97454671     1.05760
O501        O  0.89294307  0.71398460  0.00569861    -0.79030
O502        O  0.96126668  0.63018983  0.51918394    -0.66610
Ni503      Ni  0.08545294  0.84311675  0.54157737     1.34870
C504        C  0.00033201  0.62837951  0.53682139     0.84500
O505        O  0.96099485  0.87163422  0.52700810    -0.79560
O506        O  0.02866110  0.87913054  0.55782430    -0.89840
C507        C  0.87584964  0.75935349  0.99692073     0.84070
O508        O  0.07859192  0.88292039  0.00679267    -0.68040
O509        O  0.00213759  0.63897503  0.96932338    -0.87330
C510        C  0.05327610  0.87305899  0.98410627     0.84900
C511        C  0.99085251  0.90032541  0.54380758     1.06470
H512        H  0.00688608  0.74482647  0.97589185     0.38270
O513        O  0.99537529  0.73440072  0.99427693    -1.09990
O514        O  0.03250318  0.66932911  0.54079137    -0.66640
Ni515      Ni  0.05906603  0.72421108  0.01430331     1.26350
O516        O  0.01358136  0.83837129  0.98282248    -0.66870
O517        O  0.07985623  0.66507632  0.99176785    -0.79160
C518        C  0.15730886  0.76082892  0.52941902     0.84280
O519        O  0.12401662  0.72228992  0.53446090    -0.66340
Ni520      Ni  0.94719826  0.67660189  0.98767734     1.27450
Ni521      Ni  0.97460064  0.79947344  0.51187409     1.26060
H522        H  0.02309707  0.77128121  0.55216725     0.38830
O523        O  0.38737545  0.67119758  0.50273521    -0.81130
O524        O  0.62685153  0.67468083  0.00630491    -0.65820
O525        O  0.48285862  0.69257575  0.52868171    -1.12420
C526        C  0.49959262  0.84068504  0.96352396     1.05760
O527        O  0.62965250  0.75782133  0.02188801    -0.79030
O528        O  0.56458067  0.84527573  0.52099480    -0.66610
Ni529      Ni  0.43047841  0.63515172  0.52959932     1.34870
C530        C  0.51896969  0.84765482  0.53250719     0.84500
O531        O  0.55653968  0.60626499  0.53685908    -0.79560
O532        O  0.47387214  0.59646486  0.55562986    -0.89840
C533        C  0.65392348  0.71783322  0.01288296     0.84070
O534        O  0.45418993  0.59196211  0.00061801    -0.68040
O535        O  0.55142508  0.83800839  0.96654918    -0.87330
C536        C  0.48822847  0.60099113  0.98166342     0.84900
C537        C  0.52049058  0.57866617  0.55092639     1.06470
H538        H  0.54071225  0.73087336  0.97480116     0.38270
O539        O  0.54230686  0.74137741  0.99388882    -1.09990
O540        O  0.48370436  0.80850603  0.53122475    -0.66640
Ni541      Ni  0.47183032  0.75299962  0.00327518     1.26350
O542        O  0.52744556  0.63610456  0.98415191    -0.66870
O543        O  0.46478018  0.81086786  0.97671947    -0.79160
C544        C  0.36936097  0.71641883  0.50804270     0.84280
O545        O  0.39972845  0.75743194  0.51190278    -0.66340
Ni546      Ni  0.59270023  0.79882152  0.99433644     1.27450
Ni547      Ni  0.55239825  0.67651675  0.51643830     1.26060
H548        H  0.48689146  0.70619085  0.54717279     0.38830
O549        O  0.21491914  0.85846400  0.83193320    -0.81130
O550        O  0.20287627  0.10596416  0.85876181    -0.65820
O551        O  0.22097944  0.97006665  0.82629170    -1.12420
C552        C  0.37134536  0.97308631  0.89189881     1.05760
O553        O  0.28928787  0.11908995  0.84662406    -0.79030
O554        O  0.37776337  0.05316107  0.84425222    -0.66610
Ni555      Ni  0.16505628  0.91452908  0.82663963     1.34870
C556        C  0.37810586  0.01719961  0.82603022     0.84500
O557        O  0.13833100  0.04842017  0.82278374    -0.79560
O558        O  0.10704621  0.96279930  0.82134642    -0.89840
C559        C  0.24403652  0.13732471  0.85345279     0.84070
O560        O  0.15656633  0.91534650  0.86548915    -0.68040
O561        O  0.36129249  0.02234951  0.89613704    -0.87330
C562        C  0.14719248  0.95459111  0.88079830     0.84900
C563        C  0.09960591  0.01301908  0.81920105     1.06470
H564        H  0.25754901  0.00863855  0.88399515     0.38270
O565        O  0.26917580  0.01942441  0.86567184    -1.09990
O566        O  0.33552455  0.98791886  0.82091358    -0.66640
Ni567      Ni  0.28617243  0.95690573  0.84835725     1.26350
O568        O  0.16095824  0.00372168  0.87413094    -0.66870
O569        O  0.34862949  0.94551358  0.87243767    -0.79160
C570        C  0.26596552  0.85452879  0.83145186     0.84280
O571        O  0.29939957  0.89369862  0.83090519    -0.66340
Ni572      Ni  0.32545043  0.07123363  0.87131832     1.27450
Ni573      Ni  0.20546625  0.03565546  0.84387923     1.26060
H574        H  0.23063729  0.97819853  0.80738336     0.38830
O575        O  0.33892022  0.61909818  0.86556976    -0.81130
O576        O  0.32195669  0.38843900  0.84889915    -0.65820
O577        O  0.30553142  0.53723957  0.83493648    -1.12420
C578        C  0.16677700  0.50568436  0.90123423     1.05760
O579        O  0.23623371  0.39042719  0.83345941    -0.79030
O580        O  0.15334601  0.46400980  0.83417713    -0.66610
Ni581      Ni  0.36616803  0.58572438  0.83464601     1.34870
C582        C  0.15118631  0.51471188  0.82992728     0.84500
O583        O  0.39152161  0.46492168  0.82217219    -0.79560
O584        O  0.39380333  0.54852933  0.80459006    -0.89840
C585        C  0.27696953  0.36379305  0.84206224     0.84070
O586        O  0.41383961  0.54968807  0.85977535    -0.68040
O587        O  0.15851130  0.45899988  0.89052922    -0.87330
C588        C  0.40263357  0.51643258  0.87922803     0.84900
C589        C  0.41725898  0.50457036  0.80949453     1.06470
H590        H  0.27012001  0.46032326  0.88471330     0.38270
O591        O  0.25827565  0.46844928  0.86595056    -1.09990
O592        O  0.18979491  0.54688237  0.83775413    -0.66640
Ni593      Ni  0.25184691  0.54214932  0.86346219     1.26350
O594        O  0.36444141  0.48024125  0.87641036    -0.66870
O595        O  0.20188709  0.54122367  0.89263498    -0.79160
C596        C  0.29546141  0.64271660  0.86112752     0.84280
O597        O  0.25056649  0.61707317  0.86102629    -0.66340
Ni598      Ni  0.19596993  0.42395466  0.86114495     1.27450
Ni599      Ni  0.32136532  0.46447620  0.84271719     1.26060
H600        H  0.28735180  0.53935588  0.81705097     0.38830
O601        O  0.81504882  0.37442179  0.79367585    -0.81130
O602        O  0.82239438  0.62023069  0.75082215    -0.65820
O603        O  0.80727135  0.48565333  0.79065392    -1.12420
C604        C  0.66907633  0.45857091  0.71933700     1.05760
O605        O  0.73258621  0.62118781  0.75687141    -0.79030
O606        O  0.64943282  0.54614471  0.75906004    -0.66610
Ni607      Ni  0.86418314  0.43566454  0.79465337     1.34870
C608        C  0.64782091  0.51696302  0.78090044     0.84500
O609        O  0.89060066  0.57182823  0.78994060    -0.79560
O610        O  0.92199854  0.48911134  0.79656721    -0.89840
C611        C  0.77863229  0.64568919  0.75471148     0.84070
O612        O  0.87329110  0.43168383  0.75582777    -0.68040
O613        O  0.67867678  0.50762013  0.71154254    -0.87330
C614        C  0.88328426  0.46974084  0.73830400     0.84900
C615        C  0.92976245  0.53985768  0.79559373     1.06470
H616        H  0.77736298  0.50942313  0.73014604     0.38270
O617        O  0.76276417  0.52270660  0.74689085    -1.09990
O618        O  0.69012403  0.49366932  0.79024123    -0.66640
Ni619      Ni  0.74497737  0.46166034  0.76792299     1.26350
O620        O  0.87032790  0.51878995  0.74188929    -0.66870
O621        O  0.68785901  0.43767013  0.74201972    -0.79160
C622        C  0.76403660  0.36525150  0.79395361     0.84280
O623        O  0.72999863  0.40110537  0.79026295    -0.66340
Ni624      Ni  0.70638872  0.56530714  0.73388291     1.27450
Ni625      Ni  0.82326619  0.55007841  0.76913549     1.26060
H626        H  0.79540584  0.49519267  0.80869377     0.38830
O627        O  0.70741114  0.13333343  0.74977651    -0.81130
O628        O  0.70105216  0.89667645  0.75457298    -0.65820
O629        O  0.72455108  0.04142295  0.77702652    -1.12420
C630        C  0.86989557  0.03688916  0.71283157     1.05760
O631        O  0.78838162  0.89445431  0.76752448    -0.79030
O632        O  0.87515297  0.96624257  0.77005211    -0.66610
Ni633      Ni  0.66945434  0.09118515  0.77649742     1.34870
C634        C  0.87721567  0.01005914  0.78298195     0.84500
O635        O  0.63222017  0.96591955  0.78329436    -0.79560
O636        O  0.63222033  0.04653892  0.80266835    -0.89840
C637        C  0.74466012  0.87058318  0.75918137     0.84070
O638        O  0.62447063  0.06465203  0.74681586    -0.68040
O639        O  0.86639627  0.98516537  0.71530751    -0.87330
C640        C  0.63334522  0.03171921  0.72801545     0.84900
C641        C  0.60690025  0.00342697  0.79563212     1.06470
H642        H  0.75905041  0.98756393  0.72389720     0.38270
O643        O  0.77061400  0.98534420  0.74305123    -1.09990
O644        O  0.83934407  0.04368493  0.78142226    -0.66640
Ni645      Ni  0.78469464  0.05646729  0.75270014     1.26350
O646        O  0.66640896  0.99381623  0.73156623    -0.66870
O647        O  0.84193957  0.06808491  0.72702093    -0.79160
C648        C  0.75046264  0.15617147  0.75871736     0.84280
O649        O  0.79243336  0.12926201  0.76241880    -0.66340
Ni650      Ni  0.82763097  0.93852309  0.74169577     1.27450
Ni651      Ni  0.70529871  0.97132931  0.76479711     1.26060
H652        H  0.73864219  0.03826200  0.79577699     0.38830
O653        O  0.13734146  0.29828274  0.59658396    -0.81130
O654        O  0.89872080  0.33385280  0.58741642    -0.65820
O655        O  0.03286065  0.28868337  0.61366190    -1.12420
C656        C  0.99125240  0.13610147  0.55643960     1.05760
O657        O  0.86560855  0.25187986  0.59652217    -0.79030
O658        O  0.92125067  0.16438486  0.60720561    -0.66610
Ni659      Ni  0.09127593  0.33770104  0.62052963     1.34870
C660        C  0.96172262  0.16029104  0.62361276     0.84500
O661        O  0.96303230  0.36779573  0.62808818    -0.79560
O662        O  0.04764880  0.37457013  0.64663845    -0.89840
C663        C  0.85962859  0.30206206  0.59285370     0.84070
O664        O  0.07443631  0.39518417  0.59371921    -0.68040
O665        O  0.94439559  0.15583747  0.55337517    -0.87330
C666        C  0.03193001  0.40473564  0.57892139     0.84900
C667        C  0.99683825  0.38465478  0.64657786     1.06470
H668        H  0.97482869  0.26954869  0.55707994     0.38270
O669        O  0.96922490  0.25504488  0.57556085    -1.09990
O670        O  0.00746858  0.18440324  0.61972091    -0.66640
Ni671      Ni  0.03576405  0.22839857  0.58947206     1.26350
O672        O  0.99510019  0.36789454  0.57488865    -0.66870
O673        O  0.03199551  0.16285301  0.56742046    -0.79160
C674        C  0.14570802  0.24756557  0.60030311     0.84280
O675        O  0.10680539  0.21222538  0.60204422    -0.66340
Ni676      Ni  0.90744185  0.20642683  0.57457591     1.27450
Ni677      Ni  0.96640221  0.31359162  0.60075628     1.26060
H678        H  0.02559074  0.27403623  0.63193513     0.38830
O679        O  0.64893351  0.21383428  0.58350105    -0.81130
O680        O  0.40054292  0.16062462  0.60390839    -0.65820
O681        O  0.53695180  0.20132326  0.57152716    -1.12420
C682        C  0.53686102  0.33067941  0.64336320     1.05760
O683        O  0.38707847  0.24860335  0.59693636    -0.79030
O684        O  0.45116337  0.34407586  0.59908584    -0.66610
Ni685      Ni  0.59839058  0.15767813  0.57113140     1.34870
C686        C  0.48417530  0.35140626  0.57946616     0.84500
O687        O  0.46692593  0.10420773  0.56861319    -0.79560
O688        O  0.55519945  0.09692152  0.55911064    -0.89840
C689        C  0.36872486  0.20071191  0.60207974     0.84070
O690        O  0.59398739  0.13159994  0.60852933    -0.68040
O691        O  0.48779954  0.31454565  0.64854136    -0.87330
C692        C  0.55458658  0.11884882  0.62429750     0.84900
C693        C  0.50750926  0.07593973  0.56155743     1.06470
H694        H  0.50195066  0.22055013  0.63002334     0.38270
O695        O  0.48791849  0.23417863  0.61254020    -1.09990
O696        O  0.50817071  0.31141025  0.57014646    -0.66640
Ni697      Ni  0.54786752  0.26313104  0.59447909     1.26350
O698        O  0.50542663  0.12994060  0.61843998    -0.66870
O699        O  0.56092896  0.31958322  0.62105812    -0.79160
C700        C  0.64939900  0.26477294  0.57999784     0.84280
O701        O  0.60724828  0.28950709  0.57484524    -0.66340
Ni702      Ni  0.43586778  0.28202852  0.62284807     1.27450
Ni703      Ni  0.47257171  0.17289687  0.58912227     1.26060
H704        H  0.52784914  0.21285894  0.55280962     0.38830
C705        C  0.20165255  0.22886113  0.60290202    -0.00390
C706        C  0.22039398  0.19261715  0.58373919    -0.12270
C707        C  0.27442417  0.17632303  0.58506448     0.01840
C708        C  0.30982539  0.19567006  0.60614669    -0.00480
C709        C  0.28947673  0.22825687  0.62655331    -0.12210
C710        C  0.23604146  0.24525644  0.62498115     0.01730
H711        H  0.19369726  0.17938860  0.56691318     0.14710
H712        H  0.31684329  0.24410485  0.64254311     0.14710
C713        C  0.21774694  0.28053414  0.64587394     0.36360
C714        C  0.29401103  0.14387438  0.56332827     0.36270
N715        N  0.20296926  0.30877242  0.66258506    -0.43980
N716        N  0.30990982  0.11793096  0.54592282    -0.43980
C717        C  0.69819024  0.29579969  0.58632034    -0.00390
C718        C  0.72076087  0.28885275  0.61284524    -0.12270
C719        C  0.77499902  0.30280881  0.61761104     0.01840
C720        C  0.80601079  0.32194351  0.59516798    -0.00480
C721        C  0.78082705  0.33893357  0.57040716    -0.12210
C722        C  0.72611793  0.32571149  0.56575620     0.01730
H723        H  0.69780656  0.26731134  0.62882423     0.14710
H724        H  0.80513081  0.35378403  0.55321011     0.14710
C725        C  0.70208783  0.33581266  0.53870251     0.36360
C726        C  0.80027180  0.28749583  0.64376349     0.36270
N727        N  0.68282793  0.34390277  0.51703233    -0.43980
N728        N  0.82086805  0.27475877  0.66452003    -0.43980
C729        C  0.60588449  0.04175633  0.70081018    -0.00390
C730        C  0.55929888  0.07316265  0.70002948    -0.12270
C731        C  0.54012908  0.09691948  0.67529765     0.01840
C732        C  0.56766053  0.08927749  0.65052012    -0.00480
C733        C  0.61148379  0.05456433  0.65099415    -0.12210
C734        C  0.63043772  0.03045729  0.67561840     0.01730
H735        H  0.53951395  0.08188055  0.71913165     0.14710
H736        H  0.63249732  0.04762770  0.63211281     0.14710
C737        C  0.67734412  0.99749091  0.67430411     0.36360
C738        C  0.49512623  0.13237392  0.67653499     0.36270
N739        N  0.71477063  0.97097315  0.67280587    -0.43980
N740        N  0.45912636  0.16082542  0.67768905    -0.43980
C741        C  0.95327629  0.12678424  0.64870330    -0.00390
C742        C  0.94484564  0.07087294  0.64615213    -0.12270
C743        C  0.92227548  0.03913787  0.66773885     0.01840
C744        C  0.90642690  0.06401182  0.69213529    -0.00480
C745        C  0.92008694  0.11932013  0.69540693    -0.12210
C746        C  0.94295334  0.15071742  0.67394826     0.01730
H747        H  0.95316356  0.05247944  0.62666449     0.14710
H748        H  0.90994746  0.13905894  0.71425225     0.14710
C749        C  0.95069192  0.20823826  0.67741330     0.36360
C750        C  0.91300472  0.98216110  0.66339951     0.36270
N751        N  0.95662028  0.25431357  0.68019434    -0.43980
N752        N  0.90612482  0.93643670  0.65980648    -0.43980
C753        C  0.63464057  0.42432171  0.70105773    -0.00390
C754        C  0.57988506  0.43635614  0.69639798    -0.12270
C755        C  0.54663118  0.40574504  0.67822355     0.01840
C756        C  0.56867297  0.36296058  0.66395134    -0.00480
C757        C  0.62364185  0.35127465  0.66873896    -0.12210
C758        C  0.65643016  0.38123729  0.68724186     0.01730
H759        H  0.56317903  0.46984361  0.70692961     0.14710
H760        H  0.64101648  0.31846378  0.65802468     0.14710
C761        C  0.71293904  0.36871272  0.69108309     0.36360
C762        C  0.49093392  0.42055623  0.67375045     0.36270
N763        N  0.75836862  0.35963883  0.69455075    -0.43980
N764        N  0.44631245  0.43259251  0.67019154    -0.43980
C765        C  0.91481558  0.45510301  0.71395829    -0.00390
C766        C  0.96173975  0.42546158  0.71898048    -0.12270
C767        C  0.99190258  0.40641044  0.69733108     0.01840
C768        C  0.97391663  0.41462029  0.66968371    -0.00480
C769        C  0.92748319  0.44539767  0.66459383    -0.12210
C770        C  0.89834059  0.46610879  0.68639503     0.01730
H771        H  0.97493208  0.41702158  0.74014581     0.14710
H772        H  0.91284594  0.45184033  0.64350438     0.14710
C773        C  0.84964284  0.49489267  0.67998442     0.36360
C774        C  0.03925178  0.37587871  0.70434837     0.36270
N775        N  0.81052347  0.51776779  0.67467122    -0.43980
N776        N  0.07732686  0.35164588  0.71003611    -0.43980
C777        C  0.77721304  0.70425594  0.75797353    -0.00390
C778        C  0.79809520  0.73892309  0.73726177    -0.12270
C779        C  0.78408114  0.79311696  0.73599516     0.01840
C780        C  0.74784451  0.81271392  0.75534546    -0.00480
C781        C  0.72774719  0.77838316  0.77624232    -0.12210
C782        C  0.74250319  0.72474953  0.77794246     0.01730
H783        H  0.82345747  0.72328554  0.72151604     0.14710
H784        H  0.70248483  0.79415504  0.79201645     0.14710
C785        C  0.72123990  0.69143367  0.80049400     0.36360
C786        C  0.80736494  0.82808549  0.71468627     0.36270
N787        N  0.70392844  0.66488694  0.81849735    -0.43980
N788        N  0.82609581  0.85604501  0.69761298    -0.43980
C789        C  0.74484649  0.31001742  0.79220986    -0.00390
C790        C  0.71349319  0.29824953  0.76844390    -0.12270
C791        C  0.71533988  0.24808304  0.75685223     0.01840
C792        C  0.74760660  0.20901393  0.76988382    -0.00480
C793        C  0.77370084  0.21878722  0.79539200    -0.12210
C794        C  0.77228897  0.26935767  0.80677160     0.01730
H795        H  0.69331549  0.33004131  0.75689326     0.14710
H796        H  0.79602645  0.18735905  0.80608121     0.14710
C797        C  0.80189273  0.27990350  0.83229749     0.36360
C798        C  0.68832217  0.23960279  0.73035793     0.36270
N799        N  0.82546451  0.28843549  0.85277897    -0.43980
N800        N  0.66697837  0.23282935  0.70910465    -0.43980
C801        C  0.59325608  0.50982694  0.79423217    -0.00390
C802        C  0.56592524  0.55633841  0.80021407    -0.12270
C803        C  0.51008226  0.55467517  0.80577831     0.01840
C804        C  0.47817223  0.50527903  0.80466375    -0.00480
C805        C  0.50619264  0.45793214  0.80019248    -0.12210
C806        C  0.56284807  0.45989320  0.79485485     0.01730
H807        H  0.58829295  0.59493801  0.79975930     0.14710
H808        H  0.48360954  0.41953149  0.79995320     0.14710
C809        C  0.58789908  0.41032187  0.78846729     0.36360
C810        C  0.48750787  0.60515861  0.81313274     0.36270
N811        N  0.60714959  0.37003080  0.78343499    -0.43980
N812        N  0.46976699  0.64567234  0.81912267    -0.43980
C813        C  0.09898670  0.53724061  0.81798738    -0.00390
C814        C  0.08074241  0.52570194  0.79103429    -0.12270
C815        C  0.02786711  0.53888015  0.78164026     0.01840
C816        C  0.98883823  0.55730495  0.80005350    -0.00480
C817        C  0.00842934  0.57286444  0.82629016    -0.12210
C818        C  0.06361311  0.56628318  0.83449074     0.01730
H819        H  0.10799283  0.50710749  0.77714012     0.14710
H820        H  0.98036711  0.58846801  0.84077410     0.14710
C821        C  0.08313916  0.59067130  0.85970395     0.36360
C822        C  0.01541260  0.53659512  0.75248189     0.36270
N823        N  0.09886219  0.61248703  0.87933175    -0.43980
N824        N  0.00717829  0.53777700  0.72885635    -0.43980
C825        C  0.04163491  0.02706832  0.81392720    -0.00390
C826        C  0.00197127  0.99819615  0.82968696    -0.12270
C827        C  0.94685389  0.99548739  0.82139621     0.01840
C828        C  0.92950902  0.02412754  0.79757303    -0.00480
C829        C  0.96813700  0.05674846  0.78309768    -0.12210
C830        C  0.02387872  0.05763783  0.79070754     0.01730
H831        H  0.01484716  0.97403358  0.84747543     0.14710
H832        H  0.95554134  0.07744112  0.76413211     0.14710
C833        C  0.06219658  0.08410511  0.77225488     0.36360
C834        C  0.90956947  0.95993930  0.83644926     0.36270
N835        N  0.09232309  0.10474014  0.75691126    -0.43980
N836        N  0.87975328  0.93122869  0.84844079    -0.43980
C837        C  0.54556320  0.00335286  0.79945640    -0.00390
C838        C  0.51351603  0.95622573  0.80493455    -0.12270
C839        C  0.45734638  0.95867436  0.81119905     0.01840
C840        C  0.43158364  0.00916666  0.81207560    -0.00480
C841        C  0.46283344  0.05537415  0.80473326    -0.12210
C842        C  0.51797814  0.05315992  0.79815791     0.01730
H843        H  0.53271238  0.91761181  0.80547603     0.14710
H844        H  0.44425168  0.09432098  0.80497178     0.14710
C845        C  0.54469582  0.10394975  0.79012856     0.36360
C846        C  0.42872817  0.90860583  0.81816707     0.36270
N847        N  0.56564709  0.14485820  0.78378075    -0.43980
N848        N  0.40780124  0.86721472  0.82355066    -0.43980
C849        C  0.26821125  0.30548126  0.84611637    -0.00390
C850        C  0.23176627  0.27878128  0.82782843    -0.12270
C851        C  0.21868192  0.22403102  0.83147203     0.01840
C852        C  0.24159185  0.19553487  0.85395647    -0.00480
C853        C  0.27647820  0.22232501  0.87281790    -0.12210
C854        C  0.28997380  0.27709936  0.86913451     0.01730
H855        H  0.21443052  0.30052448  0.81021785     0.14710
H856        H  0.29525071  0.19968172  0.88972472     0.14710
C857        C  0.32556809  0.30284810  0.88936554     0.36360
C858        C  0.18531437  0.19719585  0.81072784     0.36270
N859        N  0.35418835  0.32304745  0.90568802    -0.43980
N860        N  0.15886807  0.17589100  0.79391303    -0.43980
C861        C  0.28677169  0.80239986  0.83579086    -0.00390
C862        C  0.27177035  0.76308447  0.81673722    -0.12270
C863        C  0.27619178  0.70936145  0.82428965     0.01840
C864        C  0.29796415  0.69641452  0.85065508    -0.00480
C865        C  0.31824076  0.73554289  0.86840553    -0.12210
C866        C  0.31046249  0.78890811  0.86175242     0.01730
H867        H  0.25249491  0.77422953  0.79713098     0.14710
H868        H  0.33416093  0.72409717  0.88875438     0.14710
C869        C  0.31672199  0.82622342  0.88408805     0.36360
C870        C  0.25535903  0.66862123  0.80554516     0.36270
N871        N  0.32014237  0.85319070  0.90323613    -0.43980
N872        N  0.23821231  0.63619805  0.79057047    -0.43980
C873        C  0.50808162  0.90049613  0.54622205    -0.00390
C874        C  0.55309440  0.92893202  0.55748360    -0.12270
C875        C  0.55232791  0.98407286  0.56306925     0.01840
C876        C  0.50472001  0.01466311  0.55771889    -0.00480
C877        C  0.45761962  0.98517555  0.54863864    -0.12210
C878        C  0.45904462  0.92894414  0.54279724     0.01730
H879        H  0.59091307  0.90826282  0.56061149     0.14710
H880        H  0.42034577  0.00630943  0.54491688     0.14710
C881        C  0.41038639  0.90221258  0.53192314     0.36360
C882        C  0.60334521  0.00761680  0.57332591     0.36270
N883        N  0.37122717  0.88088855  0.02321128    -0.43980
N884        N  0.64498325  0.02579162  0.58079612    -0.43980
C885        C  0.52769383  0.52091559  0.55970318    -0.00390
C886        C  0.53138223  0.48173098  0.53920573    -0.12270
C887        C  0.51832282  0.42631043  0.54478096     0.01840
C888        C  0.50011564  0.40900128  0.57122186    -0.00480
C889        C  0.49979942  0.44800734  0.59195120    -0.12210
C890        C  0.51337671  0.50276779  0.58651952     0.01730
H891        H  0.54068718  0.49489595  0.51823919     0.14710
H892        H  0.48840843  0.43576667  0.61274692     0.14710
C893        C  0.51085101  0.54018008  0.60878858     0.36360
C894        C  0.52042671  0.38888069  0.52256299     0.36270
N895        N  0.50904944  0.57008857  0.62667699    -0.43980
N896        N  0.52204742  0.35895346  0.00467367    -0.43980
C897        C  0.43425092  0.52515263  0.90576151    -0.00390
C898        C  0.47719279  0.56485087  0.90547517    -0.12270
C899        C  0.49775953  0.58847744  0.92975119     0.02160
C900        C  0.47805879  0.57026832  0.95563075    -0.00480
C901        C  0.44018474  0.52579372  0.95611606    -0.12210
C902        C  0.41750877  0.50402857  0.93168523     0.01730
H903        H  0.49188582  0.58130672  0.88592535     0.14710
H904        H  0.42506772  0.51019542  0.97574376     0.14710
C905        C  0.37422887  0.46334992  0.93413192     0.36360
C906        C  0.53412261  0.63527599  0.92687304     0.36270
N907        N  0.33930092  0.43102851  0.93638226    -0.43980
N908        N  0.56241028  0.67332678  0.92418094    -0.43980
C909        C  0.41110373  0.94590760  0.91019429    -0.00390
C910        C  0.44470147  0.90802750  0.89878574    -0.12270
C911        C  0.47750784  0.87565590  0.91571884     0.01840
C912        C  0.47700505  0.88127297  0.94451475    -0.00480
C913        C  0.44613085  0.92118491  0.95583484    -0.12210
C914        C  0.41324481  0.95353935  0.93901424     0.01730
H915        H  0.44377273  0.90227488  0.87668048     0.14710
H916        H  0.44575998  0.92526278  0.97806296     0.14710
C917        C  0.37894773  0.99078602  0.95217122     0.36360
C918        C  0.50825026  0.83456020  0.90333056     0.36270
N919        N  0.35144936  0.02046798  0.96281007    -0.43980
N920        N  0.53284084  0.80157140  0.89340168    -0.43980
C921        C  0.00959986  0.57425421  0.55121144    -0.00390
C922        C  0.96532776  0.53717291  0.55338920    -0.12270
C923        C  0.97148979  0.48270436  0.56143007     0.01840
C924        C  0.02378152  0.46195092  0.56748593    -0.00480
C925        C  0.06832118  0.49952861  0.56591262    -0.12210
C926        C  0.06188120  0.55443914  0.55784714     0.01730
H927        H  0.92482736  0.55084702  0.54840243     0.14710
H928        H  0.10880869  0.48596808  0.57089635     0.14710
C929        C  0.11039248  0.58850821  0.55571387     0.36360
C930        C  0.92154215  0.45126037  0.56398406     0.36270
N931        N  0.15020370  0.61469316  0.55438328    -0.43980
N932        N  0.87881358  0.43052449  0.56540266    -0.43980
C933        C  0.99500278  0.07721666  0.54914242    -0.00390
C934        C  0.94833328  0.04910253  0.53798854    -0.12270
C935        C  0.94489541  0.99214305  0.53615064     0.01840
C936        C  0.98863881  0.96106172  0.54557369    -0.00480
C937        C  0.03586560  0.98935127  0.55564087    -0.12210
C938        C  0.03945430  0.04583891  0.55751602     0.01730
H939        H  0.91311767  0.07146483  0.53148926     0.14710
H940        H  0.07117093  0.96717371  0.56224403     0.14710
C941        C  0.08908672  0.06957374  0.56911382     0.36360
C942        C  0.89523750  0.96669379  0.52560607     0.36270
N943        N  0.12910098  0.08783845  0.57854570    -0.43980
N944        N  0.85534008  0.94621822  0.51723940    -0.43980
C945        C  0.13519379  0.52229815  0.92489373    -0.00390
C946        C  0.16423760  0.55072970  0.94541179    -0.12270
C947        C  0.13856108  0.58545760  0.96265441     0.01840
C948        C  0.08192418  0.59260447  0.95962373    -0.00480
C949        C  0.05194560  0.55852749  0.94129988    -0.12210
C950        C  0.07807331  0.52316750  0.92416856     0.01730
H951        H  0.20825150  0.54882053  0.94657921     0.14710
H952        H  0.00815262  0.56103084  0.93934090     0.14710
C953        C  0.04599754  0.49228185  0.90436724     0.36360
C954        C  0.17286787  0.61417069  0.98221383     0.36270
N955        N  0.02028905  0.46754278  0.88848516    -0.43980
N956        N  0.20201655  0.63594983  0.99768591    -0.43980
C957        C  0.07231325  0.90115981  0.95786687    -0.00390
C958        C  0.05436548  0.88004588  0.93243361    -0.12270
C959        C  0.07616815  0.89913752  0.90735251     0.01840
C960        C  0.11767123  0.94049226  0.90691654    -0.00480
C961        C  0.13302388  0.96458895  0.93198828    -0.12210
C962        C  0.11079757  0.94557865  0.95726616     0.01730
H963        H  0.02420146  0.84698990  0.93204003     0.14710
H964        H  0.16392957  0.99697717  0.93200085     0.14710
C965        C  0.12850293  0.97262323  0.98213535     0.36360
C966        C  0.05479666  0.87522596  0.88222797     0.36270
N967        N  0.14256521  0.99452395  0.50203559    -0.43980
N968        N  0.03760828  0.85604644  0.86214257    -0.43980
C969        C  0.81778557  0.76384479  0.99730608    -0.00390
C970        C  0.78740729  0.73602367  0.97700053    -0.12270
C971        C  0.73416092  0.71770265  0.98199532     0.01840
C972        C  0.71151895  0.72703539  0.00779483    -0.00480
C973        C  0.74152696  0.75669532  0.52762417    -0.12210
C974        C  0.79432709  0.77525264  0.52255622     0.01730
H975        H  0.80651719  0.72570299  0.95795036     0.14710
H976        H  0.72356101  0.76523387  0.54724469     0.14710
C977        C  0.82525296  0.80177540  0.54442355     0.36360
C978        C  0.70383185  0.69036004  0.96030537     0.36270
N979        N  0.85003820  0.82271795  0.56199370    -0.43980
N980        N  0.68009065  0.66848218  0.94270378    -0.43980
C981        C  0.31362819  0.72077686  0.51197539    -0.00390
C982        C  0.28518078  0.75102452  0.99237325    -0.12270
C983        C  0.23311678  0.76489636  0.99784147     0.01840
C984        C  0.21100121  0.74846878  0.52341850    -0.00480
C985        C  0.23937766  0.71747910  0.54285041    -0.12210
C986        C  0.29126479  0.70310969  0.53717565     0.01730
H987        H  0.30412480  0.76458398  0.97323085     0.14710
H988        H  0.22122761  0.70527961  0.56237897     0.14710
C989        C  0.32162212  0.67287965  0.55783384     0.36360
C990        C  0.20311107  0.79455487  0.97680148     0.36270
N991        N  0.34588445  0.64877725  0.57440603    -0.43980
N992        N  0.17935089  0.81815724  0.95984135    -0.43980
loop_ 
_geom_bond_atom_site_label_1 
_geom_bond_atom_site_label_2 
_geom_bond_distance 
_geom_bond_site_symmetry_2 
_ccdc_geom_bond_type 
O1           Ni7   1.878       .  S
O1           C22   1.262       .  A
O2         Ni521   1.898       .  S
O2           C11   1.280       .  A
O3           Ni7   1.886       .  S
O3          Ni25   1.890   1_455  S
O3         Ni515   1.922       .  S
O3           H26   0.966       .  S
C4           O21   1.288       .  A
C4           O13   1.282       .  A
C4          C452   1.497       .  S
O5          Ni24   1.896       .  S
O5           C11   1.276       .  A
O6         Ni520   1.921   1_554  S
O6            C8   1.273   1_655  A
Ni7          O10   1.885       .  S
Ni7         O508   1.937       .  S
C8           O18   1.279       .  A
C8          C425   1.519       .  S
O9          Ni25   1.995       .  S
O9           C15   1.292       .  A
O10          C15   1.263   1_455  A
C11         C473   1.438       .  S
O12        Ni503   1.937       .  S
O12          C14   1.275       .  A
O13         Ni24   1.919   1_455  S
C14          O20   1.278       .  A
C14         C461   1.508       .  S
C15         C440   1.514       .  S
H16          O17   0.966   1_455  S
O17         Ni19   1.847   1_655  S
O17         Ni24   1.854       .  S
O17        Ni521   1.936       .  S
O18        Ni515   1.950       .  S
Ni19         O21   1.942       .  S
Ni19        O514   1.950       .  S
Ni19        O519   1.855       .  S
Ni19        O499   1.922       .  S
O20        Ni521   1.936   1_455  S
C22          O23   1.257       .  A
C22         C488   1.406       .  S
O23        Ni515   1.855       .  S
Ni24        O502   1.921       .  S
Ni25        O498   1.898   1_554  S
Ni25        O516   1.936   1_654  S
Ni25        O513   1.936   1_554  S
O27         Ni33   1.889       .  S
O27          C48   1.257       .  A
O28        Ni547   1.910       .  S
O28          C37   1.282       .  A
O29         Ni33   1.884       .  S
O29         Ni51   1.884       .  S
O29        Ni541   1.938       .  S
O29          H52   0.966       .  S
C30          O47   1.280       .  A
C30          O39   1.285       .  A
C30         C416   1.464       .  S
O31         Ni50   1.894       .  S
O31          C37   1.269       .  A
O32        Ni546   1.911   1_554  S
O32          C34   1.268       .  A
Ni33         O36   1.899       .  S
Ni33        O534   1.902       .  S
C34          O44   1.278       .  A
C34         C377   1.520       .  S
O35         Ni51   1.986       .  S
O35          C41   1.294       .  A
O36          C41   1.273       .  A
C37         C476   1.452       .  S
O38        Ni529   1.902       .  S
O38          C40   1.266       .  A
O39         Ni50   1.933       .  S
C40          O46   1.280       .  A
C40         C404   1.500       .  S
C41         C389   1.500       .  S
H42          O43   0.966       .  S
O43         Ni45   1.838       .  S
O43         Ni50   1.852       .  S
O43        Ni547   1.942       .  S
O44        Ni541   1.964       .  S
Ni45         O47   1.913       .  S
Ni45        O540   1.964       .  S
Ni45        O545   1.840       .  S
Ni45        O525   1.938       .  S
O46        Ni547   1.953       .  S
C48          O49   1.254       .  A
C48         C485   1.398       .  S
O49        Ni541   1.840       .  S
Ni50        O528   1.911       .  S
Ni51        O524   1.910       .  S
Ni51        O542   1.953   1_554  S
Ni51        O539   1.942   1_554  S
O53         Ni59   1.899       .  S
O53          C74   1.265       .  A
O54         Ni77   1.908       .  S
O54          C63   1.279       .  A
O55         Ni59   1.909       .  S
O55         Ni77   1.911   1_565  S
O55         Ni71   1.941       .  S
O55          H78   0.965       .  S
C56          O73   1.283       .  A
C56          O65   1.279   1_565  A
C56         C413   1.476       .  S
O57         Ni76   1.895       .  S
O57          C63   1.272       .  A
O58         Ni76   1.930       .  S
O58          C60   1.271       .  A
Ni59         O62   1.908       .  S
Ni59         O64   1.897       .  S
C60          O70   1.275   1_545  A
C60         C344   1.515       .  S
O61         Ni77   1.955       .  S
O61          C67   1.282       .  A
O62          C67   1.268   1_565  A
C63         C356   1.448       .  S
O64          C66   1.270       .  A
O65         Ni76   1.911       .  S
C66          O72   1.287   1_565  A
C66         C464   1.499       .  S
C67         C329   1.497       .  S
H68          O69   0.966       .  S
O69         Ni77   1.920       .  S
O69         Ni71   1.848   1_545  S
O69         Ni76   1.872       .  S
O70         Ni71   1.944       .  S
Ni71         O75   1.843       .  S
Ni71         O73   1.933       .  S
O72         Ni77   1.979       .  S
C74          O75   1.248       .  A
C74         C365   1.418       .  S
O79         Ni85   1.878       .  S
O79         C100   1.251       .  A
O80        Ni103   1.903       .  S
O80          C89   1.284       .  A
O81         Ni85   1.879       .  S
O81        Ni103   1.888       .  S
O81         Ni97   1.942       .  S
O81         H104   0.967       .  S
C82          O99   1.278       .  A
C82          O91   1.288       .  A
C82         C449   1.475       .  S
O83        Ni102   1.911       .  S
O83          C89   1.278       .  A
O84        Ni102   1.935       .  S
O84          C86   1.272       .  A
Ni85         O88   1.895       .  S
Ni85         O90   1.902       .  S
C86          O96   1.274       .  A
C86         C317   1.518       .  S
O87        Ni103   2.011       .  S
O87          C93   1.297       .  A
O88          C93   1.268       .  A
C89         C353   1.463       .  S
O90          C92   1.264       .  A
O91        Ni102   1.953       .  S
C92          O98   1.281       .  A
C92         C401   1.502       .  S
C93         C308   1.522       .  S
H94          O95   0.966       .  S
O95        Ni103   1.945       .  S
O95         Ni97   1.842       .  S
O95        Ni102   1.867       .  S
O96         Ni97   1.953       .  S
Ni97        O101   1.861       .  S
Ni97         O99   1.892       .  S
O98        Ni103   1.964       .  S
C100        O101   1.253       .  A
C100        C368   1.413       .  S
O105       Ni111   1.905       .  S
O105        C126   1.267       .  A
O106       Ni129   1.933       .  S
O106        C115   1.290       .  A
O107       Ni111   1.910       .  S
O107       Ni129   1.918       .  S
O107       Ni123   1.950       .  S
O107        H130   0.965       .  S
C108        O125   1.286       .  A
C108        O117   1.279       .  A
C108        C257   1.473       .  S
O109       Ni128   1.885       .  S
O109        C115   1.270       .  A
O110       Ni128   1.916       .  S
O110        C112   1.266       .  A
Ni111       O114   1.909       .  S
Ni111       O116   1.903       .  S
C112        O122   1.279       .  A
C112        C305   1.505       .  S
O113       Ni129   1.983       .  S
O113        C119   1.292       .  A
O114        C119   1.266       .  A
C115        C281   1.467       .  S
O116        C118   1.273       .  A
O117       Ni128   1.911       .  S
C118        O124   1.287       .  A
C118        C269   1.486       .  S
C119        C320   1.513       .  S
H120        O121   0.965       .  S
O121       Ni129   1.929       .  S
O121       Ni123   1.847       .  S
O121       Ni128   1.865       .  S
O122       Ni123   1.953       .  S
Ni123       O127   1.858       .  S
Ni123       O125   1.948       .  S
O124       Ni129   1.968       .  S
C126        O127   1.252       .  A
C126        C293   1.436       .  S
O131       Ni137   1.883       .  S
O131        C152   1.255       .  A
O132       Ni155   1.927       .  S
O132        C141   1.287       .  A
O133       Ni137   1.869       .  S
O133       Ni155   1.890   1_545  S
O133       Ni149   1.931       .  S
O133        H156   0.967       .  S
C134        O151   1.278       .  A
C134        O143   1.285   1_545  A
C134        C248   1.491       .  S
O135       Ni154   1.895       .  S
O135        C141   1.270       .  A
O136       Ni154   1.907       .  S
O136        C138   1.267   1_565  A
Ni137       O140   1.890       .  S
Ni137       O142   1.908       .  S
C138        O148   1.275       .  A
C138        C332   1.488       .  S
O139       Ni155   2.025       .  S
O139        C145   1.304   1_565  A
O140        C145   1.267       .  A
C141        C284   1.458       .  S
O142        C144   1.267       .  A
O143       Ni154   1.942       .  S
C144        O150   1.273   1_545  A
C144        C233   1.486       .  S
C145        C341   1.525       .  S
H146        O147   0.964       .  S
O147       Ni155   1.956       .  S
O147       Ni149   1.854   1_565  S
O147       Ni154   1.860       .  S
O148       Ni149   1.941       .  S
Ni149       O153   1.879       .  S
Ni149       O151   1.908       .  S
O150       Ni155   1.934       .  S
C152        O153   1.259       .  A
C152        C296   1.435       .  S
O157       Ni163   1.947       .  S
O157        C178   1.290       .  A
O158       Ni181   1.856       .  S
O158        C167   1.248       .  A
O159       Ni163   1.875       .  S
O159       Ni181   1.860   1_455  S
O159       Ni175   1.927       .  S
O159        H182   0.965       .  S
C160        O177   1.292   1_655  A
C160        O169   1.275       .  A
C160        C437   1.518       .  S
O161       Ni180   1.914       .  S
O161        C167   1.267       .  A
O162       Ni180   1.902       .  S
O162        C164   1.265       .  A
Ni163       O166   1.945       .  S
Ni163       O168   1.954       .  S
C164        O174   1.269   1_655  A
C164        C245   1.468       .  S
O165       Ni181   1.916       .  S
O165        C171   1.275       .  A
O166        C171   1.285   1_455  A
C167        C224   1.434       .  S
O168        C170   1.281       .  A
O169       Ni180   1.911       .  S
C170        O176   1.277   1_455  A
C170        C428   1.529       .  S
C171        C272   1.492       .  S
H172        O173   0.966       .  S
O173       Ni181   1.925       .  S
O173       Ni175   1.893   1_655  S
O173       Ni180   1.904       .  S
O174       Ni175   1.930       .  S
Ni175       O179   1.893       .  S
Ni175       O177   1.966       .  S
O176       Ni181   1.939       .  S
C178        O179   1.275       .  A
C178        C209   1.472       .  S
O183       Ni189   1.928       .  S
O183        C204   1.270       .  A
O184       Ni207   1.937       .  S
O184        C193   1.290       .  A
O185       Ni189   1.895       .  S
O185       Ni207   1.917       .  S
O185       Ni201   1.923       .  S
O185        H208   0.967       .  S
C186        O203   1.284       .  A
C186        O195   1.285       .  A
C186        C260   1.484       .  S
O187       Ni206   1.900       .  S
O187        C193   1.275       .  A
O188       Ni206   1.928       .  S
O188        C190   1.268       .  A
Ni189       O192   1.905       .  S
Ni189       O194   1.910       .  S
C190        O200   1.272       .  A
C190        C392   1.513       .  S
O191       Ni207   1.992       .  S
O191        C197   1.299       .  A
O192        C197   1.272       .  A
C193        C212   1.467       .  S
O194        C196   1.273       .  A
O195       Ni206   1.931       .  S
C196        O202   1.275       .  A
C196        C236   1.485       .  S
C197        C380   1.535       .  S
H198        O199   0.965       .  S
O199       Ni207   1.940       .  S
O199       Ni201   1.844       .  S
O199       Ni206   1.865       .  S
O200       Ni201   1.935       .  S
Ni201       O205   1.850       .  S
Ni201       O203   1.938       .  S
O202       Ni207   1.934       .  S
C204        O205   1.243       .  A
C204        C221   1.432       .  S
C209        C210   1.406       .  A
C209        C214   1.406       .  A
C210        C211   1.405       .  A
C210        H215   1.084       .  S
C211        C212   1.408       .  A
C211        C218   1.444       .  S
C212        C213   1.405       .  A
C213        C214   1.397       .  A
C213        H216   1.086       .  S
C214        C217   1.445       .  S
C217        N219   1.157       .  T
C218        N220   1.157       .  T
C221        C222   1.397       .  A
C221        C226   1.402       .  A
C222        C223   1.382       .  A
C222        H227   1.085       .  S
C223        C224   1.404       .  A
C223        C230   1.446       .  S
C224        C225   1.400       .  A
C225        C226   1.388       .  A
C225        H228   1.084       .  S
C226        C229   1.445       .  S
C229        N231   1.157       .  T
C230        N232   1.157       .  T
C233        C234   1.411       .  A
C233        C238   1.412       .  A
C234        C235   1.401       .  A
C234        H239   1.085       .  S
C235        C236   1.411       .  A
C235        C242   1.444       .  S
C236        C237   1.406       .  A
C237        C238   1.399       .  A
C237        H240   1.081       .  S
C238        C241   1.444   1_545  S
C241        N243   1.157       .  T
C242        N244   1.157       .  T
C245        C246   1.402       .  A
C245        C250   1.405       .  A
C246        C247   1.403       .  A
C246        H251   1.085       .  S
C247        C248   1.416       .  A
C247        C254   1.443   1_545  S
C248        C249   1.412       .  A
C249        C250   1.397       .  A
C249        H252   1.085       .  S
C250        C253   1.446       .  S
C253        N255   1.157       .  T
C254        N256   1.157       .  T
C257        C258   1.404       .  A
C257        C262   1.405       .  A
C258        C259   1.405       .  A
C258        H263   1.085       .  S
C259        C260   1.413       .  A
C259        C266   1.443       .  S
C260        C261   1.408       .  A
C261        C262   1.400       .  A
C261        H264   1.083       .  S
C262        C265   1.444       .  S
C265        N267   1.157       .  T
C266        N268   1.157       .  T
C269        C270   1.407       .  A
C269        C274   1.409       .  A
C270        C271   1.400       .  A
C270        H275   1.085       .  S
C271        C272   1.412       .  A
C271        C278   1.444   1_655  S
C272        C273   1.413       .  A
C273        C274   1.408       .  A
C273        H276   1.085       .  S
C274        C277   1.443       .  S
C277        N279   1.157       .  T
C278        N280   1.157       .  T
C281        C282   1.397       .  A
C281        C286   1.421       .  A
C282        C283   1.400       .  A
C282        H287   1.085       .  S
C283        C284   1.416       .  A
C283        C290   1.444       .  S
C284        C285   1.392       .  A
C285        C286   1.393       .  A
C285        H288   1.085       .  S
C286        C289   1.447       .  S
C289        N291   1.157       .  T
C290        N292   1.157       .  T
C293        C294   1.401       .  A
C293        C298   1.402       .  A
C294        C295   1.381       .  A
C294        H299   1.085       .  S
C295        C296   1.405       .  A
C295        C302   1.447       .  S
C296        C297   1.401       .  A
C297        C298   1.385       .  A
C297        H300   1.085       .  S
C298        C301   1.444       .  S
C301        N303   1.157       .  T
C302        N304   1.158       .  T
C305        C306   1.398       .  A
C305        C310   1.422       .  A
C306        C307   1.405       .  A
C306        H311   1.086       .  S
C307        C308   1.431       .  A
C307        C314   1.446       .  S
C308        C309   1.409       .  A
C309        C310   1.422       .  A
C309        H312   1.084       .  S
C310        C313   1.441       .  S
C313        N315   1.157       .  T
C314        N316   1.158       .  T
C317        C318   1.403       .  A
C317        C322   1.423       .  A
C318        C319   1.416       .  A
C318        H323   1.084       .  S
C319        C320   1.421   1_455  A
C319        C326   1.439       .  S
C320        C321   1.406   1_655  A
C321        C322   1.421       .  A
C321        H324   1.084   1_455  S
C322        C325   1.440       .  S
C325        N327   1.157       .  T
C326        N328   1.157       .  T
C329        C330   1.414   1_545  A
C329        C334   1.410       .  A
C330        C331   1.405   1_455  A
C330        H335   1.085       .  S
C331        C332   1.406   1_565  A
C331        C338   1.444       .  S
C332        C333   1.411       .  A
C333        C334   1.412   1_655  A
C333        H336   1.085       .  S
C334        C337   1.441       .  S
C337        N339   1.157       .  T
C338        N340   1.157       .  T
C341        C342   1.407   1_545  A
C341        C346   1.432       .  A
C342        C343   1.426       .  A
C342        H347   1.084       .  S
C343        C344   1.428   1_565  A
C343        C350   1.440       .  S
C344        C345   1.398       .  A
C345        C346   1.404       .  A
C345        H348   1.085       .  S
C346        C349   1.446       .  S
C349        N351   1.158       .  T
C350        N352   1.157       .  T
C353        C354   1.405       .  A
C353        C358   1.409       .  A
C354        C355   1.391       .  A
C354        H359   1.085       .  S
C355        C356   1.402       .  A
C355        C362   1.442       .  S
C356        C357   1.401       .  A
C357        C358   1.394       .  A
C357        H360   1.086       .  S
C358        C361   1.443       .  S
C361        N363   1.157       .  T
C362        N364   1.156       .  T
C365        C366   1.393       .  A
C365        C370   1.411       .  A
C366        C367   1.381       .  A
C366        H371   1.086       .  S
C367        C368   1.407       .  A
C367        C374   1.447       .  S
C368        C369   1.384       .  A
C369        C370   1.374       .  A
C369        H372   1.087       .  S
C370        C373   1.443       .  S
C373        N375   1.156       .  T
C374        N376   1.157       .  T
C377        C378   1.397       .  A
C377        C382   1.426       .  A
C378        C379   1.402       .  A
C378        H383   1.086       .  S
C379        C380   1.436   1_565  A
C379        C386   1.447   1_565  S
C380        C381   1.414   1_545  A
C381        C382   1.432       .  A
C381        H384   1.084   1_565  S
C382        C385   1.441       .  S
C385        N883   1.157       .  T
C386        N388   1.157       .  T
N387        C881   1.157       .  T
C389        C390   1.413       .  A
C389        C394   1.410       .  A
C390        C391   1.420       .  A
C390        H395   1.085       .  S
C391        C392   1.416       .  A
C391        C398   1.442       .  S
C392        C393   1.412       .  A
C393        C394   1.406       .  A
C393        H396   1.084       .  S
C394        C397   1.444       .  S
C397        N399   1.157       .  T
C398        N896   1.157       .  T
N400        C894   1.157       .  T
C401        C402   1.416       .  A
C401        C406   1.411       .  A
C402        C403   1.402       .  A
C402        H407   1.085       .  S
C403        C404   1.410       .  A
C403        C410   1.443       .  S
C404        C405   1.416       .  A
C405        C406   1.407       .  A
C405        H408   1.085       .  S
C406        C409   1.443       .  S
C409        N411   1.157       .  T
C410        N412   1.157       .  T
C413        C414   1.407       .  A
C413        C418   1.412       .  A
C414        C415   1.399       .  A
C414        H419   1.083       .  S
C415        C416   1.405       .  A
C415        C422   1.443       .  S
C416        C417   1.401       .  A
C417        C418   1.396       .  A
C417        H420   1.083       .  S
C418        C421   1.445       .  S
C421        N423   1.157   1_565  T
C422        N424   1.157       .  T
C425        C426   1.402   1_455  A
C425        C430   1.422       .  A
C426        C427   1.409       .  A
C426        H431   1.086       .  S
C427        C428   1.426   1_655  A
C427        C434   1.436       .  S
C428        C429   1.413       .  A
C429        C430   1.421       .  A
C429        H432   1.084       .  S
C430        C433   1.439       .  S
C433        N435   1.156       .  T
C434        N436   1.155       .  T
C437        C438   1.423       .  A
C437        C442   1.413   1_655  A
C438        C439   1.417   1_545  A
C438        H443   1.084       .  S
C439        C440   1.409       .  A
C439        C446   1.442       .  S
C440        C441   1.417   1_655  A
C441        C442   1.406   1_565  A
C441        H444   1.084       .  S
C442        C445   1.443       .  S
C445        N447   1.157       .  T
C446        N448   1.157       .  T
C449        C450   1.400       .  A
C449        C454   1.406       .  A
C450        C451   1.393       .  A
C450        H455   1.086       .  S
C451        C452   1.416       .  A
C451        C458   1.438       .  S
C452        C453   1.416       .  A
C453        C454   1.406       .  A
C453        H456   1.084       .  S
C454        C457   1.444       .  S
C457        N459   1.157       .  T
C458        N460   1.155       .  T
C461        C462   1.405       .  A
C461        C466   1.425       .  A
C462        C463   1.402       .  A
C462        H467   1.084       .  S
C463        C464   1.419       .  A
C463        C470   1.446       .  S
C464        C465   1.404       .  A
C465        C466   1.414       .  A
C465        H468   1.084       .  S
C466        C469   1.443       .  S
C469        N967   1.157       .  T
C470        N472   1.157       .  T
N471        C965   1.157   1_554  T
C473        C474   1.401       .  A
C473        C974   1.403       .  A
C474        C475   1.394       .  A
C474        H479   1.085       .  S
C475        C476   1.407       .  A
C475        C482   1.442       .  S
C476        C973   1.403       .  A
C477        C478   1.386       .  A
C477        C972   1.403       .  A
C477        H480   1.086       .  S
C478        C969   1.403   1_554  A
C478        C481   1.446       .  S
C481        N483   1.157       .  T
C482        N484   1.157       .  T
C485        C490   1.402       .  A
C485        C982   1.389   1_554  A
C486        C487   1.373       .  A
C486        C981   1.389       .  A
C486        H491   1.086       .  S
C487        C984   1.408       .  A
C487        C494   1.447       .  S
C488        C489   1.392       .  A
C488        C983   1.408   1_554  A
C489        C490   1.375       .  A
C489        H492   1.085       .  S
C490        C493   1.446       .  S
C493        N495   1.157       .  T
C494        N496   1.157       .  T
O497       Ni503   1.878       .  S
O497        C518   1.262       .  A
O498        C507   1.280       .  A
O499       Ni503   1.886       .  S
O499       Ni521   1.890   1_455  S
O499        H522   0.966       .  S
C500        O517   1.288       .  A
C500        O509   1.282       .  A
C500        C948   1.497       .  S
O501       Ni520   1.896   1_554  S
O501        C507   1.276   1_554  A
O502        C504   1.273   1_655  A
Ni503       O506   1.885       .  S
C504        O514   1.279       .  A
C504        C921   1.519       .  S
O505       Ni521   1.995       .  S
O505        C511   1.292       .  A
O506        C511   1.263   1_455  A
C507        C969   1.438       .  S
O508        C510   1.275   1_554  A
O509       Ni520   1.919   1_455  S
C510        O516   1.278       .  A
C510        C957   1.508       .  S
C511        C936   1.514       .  S
H512        O513   0.966   1_455  S
O513       Ni515   1.847   1_656  S
O513       Ni520   1.854       .  S
Ni515       O517   1.942   1_554  S
C518        O519   1.257       .  A
C518        C984   1.406       .  S
O523       Ni529   1.889       .  S
O523        C544   1.257       .  A
O524        C533   1.282       .  A
O525       Ni529   1.884       .  S
O525       Ni547   1.884       .  S
O525        H548   0.966       .  S
C526        O543   1.280       .  A
C526        O535   1.285       .  A
C526        C912   1.464       .  S
O527       Ni546   1.894   1_554  S
O527        C533   1.269       .  A
O528        C530   1.268       .  A
Ni529       O532   1.899       .  S
C530        O540   1.278       .  A
C530        C873   1.520       .  S
O531       Ni547   1.986       .  S
O531        C537   1.294       .  A
O532        C537   1.273       .  A
C533        C972   1.452       .  S
O534        C536   1.266   1_554  A
O535       Ni546   1.933       .  S
C536        O542   1.280       .  A
C536        C900   1.500       .  S
C537        C885   1.500       .  S
H538        O539   0.966       .  S
O539       Ni541   1.838   1_556  S
O539       Ni546   1.852       .  S
Ni541       O543   1.913   1_554  S
C544        O545   1.254       .  A
C544        C981   1.398       .  S
O549       Ni555   1.899       .  S
O549        C570   1.265       .  A
O550       Ni573   1.908       .  S
O550        C559   1.279       .  A
O551       Ni555   1.909       .  S
O551       Ni573   1.911   1_565  S
O551       Ni567   1.941       .  S
O551        H574   0.965       .  S
C552        O569   1.283       .  A
C552        O561   1.279   1_565  A
C552        C909   1.476       .  S
O553       Ni572   1.895       .  S
O553        C559   1.272       .  A
O554       Ni572   1.930       .  S
O554        C556   1.271       .  A
Ni555       O558   1.908       .  S
Ni555       O560   1.897       .  S
C556        O566   1.275   1_545  A
C556        C840   1.515       .  S
O557       Ni573   1.955       .  S
O557        C563   1.282       .  A
O558        C563   1.268   1_565  A
C559        C852   1.448       .  S
O560        C562   1.270       .  A
O561       Ni572   1.911       .  S
C562        O568   1.287   1_565  A
C562        C960   1.499       .  S
C563        C825   1.497       .  S
H564        O565   0.966       .  S
O565       Ni573   1.920       .  S
O565       Ni567   1.848   1_545  S
O565       Ni572   1.872       .  S
O566       Ni567   1.944       .  S
Ni567       O571   1.843       .  S
Ni567       O569   1.933       .  S
O568       Ni573   1.979       .  S
C570        O571   1.248       .  A
C570        C861   1.418       .  S
O575       Ni581   1.878       .  S
O575        C596   1.251       .  A
O576       Ni599   1.903       .  S
O576        C585   1.284       .  A
O577       Ni581   1.879       .  S
O577       Ni599   1.888       .  S
O577       Ni593   1.942       .  S
O577        H600   0.967       .  S
C578        O595   1.278       .  A
C578        O587   1.288       .  A
C578        C945   1.475       .  S
O579       Ni598   1.911       .  S
O579        C585   1.278       .  A
O580       Ni598   1.935       .  S
O580        C582   1.272       .  A
Ni581       O584   1.895       .  S
Ni581       O586   1.902       .  S
C582        O592   1.274       .  A
C582        C813   1.518       .  S
O583       Ni599   2.011       .  S
O583        C589   1.297       .  A
O584        C589   1.268       .  A
C585        C849   1.463       .  S
O586        C588   1.264       .  A
O587       Ni598   1.953       .  S
C588        O594   1.281       .  A
C588        C897   1.502       .  S
C589        C804   1.522       .  S
H590        O591   0.966       .  S
O591       Ni599   1.945       .  S
O591       Ni593   1.842       .  S
O591       Ni598   1.867       .  S
O592       Ni593   1.953       .  S
Ni593       O597   1.861       .  S
Ni593       O595   1.892       .  S
O594       Ni599   1.964       .  S
C596        O597   1.253       .  A
C596        C864   1.413       .  S
O601       Ni607   1.905       .  S
O601        C622   1.267       .  A
O602       Ni625   1.933       .  S
O602        C611   1.290       .  A
O603       Ni607   1.910       .  S
O603       Ni625   1.918       .  S
O603       Ni619   1.950       .  S
O603        H626   0.965       .  S
C604        O621   1.286       .  A
C604        O613   1.279       .  A
C604        C753   1.473       .  S
O605       Ni624   1.885       .  S
O605        C611   1.270       .  A
O606       Ni624   1.916       .  S
O606        C608   1.266       .  A
Ni607       O610   1.909       .  S
Ni607       O612   1.903       .  S
C608        O618   1.279       .  A
C608        C801   1.505       .  S
O609       Ni625   1.983       .  S
O609        C615   1.292       .  A
O610        C615   1.266       .  A
C611        C777   1.467       .  S
O612        C614   1.273       .  A
O613       Ni624   1.911       .  S
C614        O620   1.287       .  A
C614        C765   1.486       .  S
C615        C816   1.513       .  S
H616        O617   0.965       .  S
O617       Ni625   1.929       .  S
O617       Ni619   1.847       .  S
O617       Ni624   1.865       .  S
O618       Ni619   1.953       .  S
Ni619       O623   1.858       .  S
Ni619       O621   1.948       .  S
O620       Ni625   1.968       .  S
C622        O623   1.252       .  A
C622        C789   1.436       .  S
O627       Ni633   1.883       .  S
O627        C648   1.255       .  A
O628       Ni651   1.927       .  S
O628        C637   1.287       .  A
O629       Ni633   1.869       .  S
O629       Ni651   1.890   1_545  S
O629       Ni645   1.931       .  S
O629        H652   0.967       .  S
C630        O647   1.278       .  A
C630        O639   1.285   1_545  A
C630        C744   1.491       .  S
O631       Ni650   1.895       .  S
O631        C637   1.270       .  A
O632       Ni650   1.907       .  S
O632        C634   1.267   1_565  A
Ni633       O636   1.890       .  S
Ni633       O638   1.908       .  S
C634        O644   1.275       .  A
C634        C828   1.488       .  S
O635       Ni651   2.025       .  S
O635        C641   1.304   1_565  A
O636        C641   1.267       .  A
C637        C780   1.458       .  S
O638        C640   1.267       .  A
O639       Ni650   1.942       .  S
C640        O646   1.273   1_545  A
C640        C729   1.486       .  S
C641        C837   1.525       .  S
H642        O643   0.964       .  S
O643       Ni651   1.956       .  S
O643       Ni645   1.854   1_565  S
O643       Ni650   1.860       .  S
O644       Ni645   1.941       .  S
Ni645       O649   1.879       .  S
Ni645       O647   1.908       .  S
O646       Ni651   1.934       .  S
C648        O649   1.259       .  A
C648        C792   1.435       .  S
O653       Ni659   1.947       .  S
O653        C674   1.290       .  A
O654       Ni677   1.856       .  S
O654        C663   1.248       .  A
O655       Ni659   1.875       .  S
O655       Ni677   1.860   1_455  S
O655       Ni671   1.927       .  S
O655        H678   0.965       .  S
C656        O673   1.292   1_655  A
C656        O665   1.275       .  A
C656        C933   1.518       .  S
O657       Ni676   1.914       .  S
O657        C663   1.267       .  A
O658       Ni676   1.902       .  S
O658        C660   1.265       .  A
Ni659       O662   1.945       .  S
Ni659       O664   1.954       .  S
C660        O670   1.269   1_655  A
C660        C741   1.468       .  S
O661       Ni677   1.916       .  S
O661        C667   1.275       .  A
O662        C667   1.285   1_455  A
C663        C720   1.434       .  S
O664        C666   1.281       .  A
O665       Ni676   1.911       .  S
C666        O672   1.277   1_455  A
C666        C924   1.529       .  S
C667        C768   1.492       .  S
H668        O669   0.966       .  S
O669       Ni677   1.925       .  S
O669       Ni671   1.893   1_655  S
O669       Ni676   1.904       .  S
O670       Ni671   1.930       .  S
Ni671       O675   1.893       .  S
Ni671       O673   1.966       .  S
O672       Ni677   1.939       .  S
C674        O675   1.275       .  A
C674        C705   1.472       .  S
O679       Ni685   1.928       .  S
O679        C700   1.270       .  A
O680       Ni703   1.937       .  S
O680        C689   1.290       .  A
O681       Ni685   1.895       .  S
O681       Ni703   1.917       .  S
O681       Ni697   1.923       .  S
O681        H704   0.967       .  S
C682        O699   1.284       .  A
C682        O691   1.285       .  A
C682        C756   1.484       .  S
O683       Ni702   1.900       .  S
O683        C689   1.275       .  A
O684       Ni702   1.928       .  S
O684        C686   1.268       .  A
Ni685       O688   1.905       .  S
Ni685       O690   1.910       .  S
C686        O696   1.272       .  A
C686        C888   1.513       .  S
O687       Ni703   1.992       .  S
O687        C693   1.299       .  A
O688        C693   1.272       .  A
C689        C708   1.467       .  S
O690        C692   1.273       .  A
O691       Ni702   1.931       .  S
C692        O698   1.275       .  A
C692        C732   1.485       .  S
C693        C876   1.535       .  S
H694        O695   0.965       .  S
O695       Ni703   1.940       .  S
O695       Ni697   1.844       .  S
O695       Ni702   1.865       .  S
O696       Ni697   1.935       .  S
Ni697       O701   1.850       .  S
Ni697       O699   1.938       .  S
O698       Ni703   1.934       .  S
C700        O701   1.243       .  A
C700        C717   1.432       .  S
C705        C706   1.406       .  A
C705        C710   1.406       .  A
C706        C707   1.405       .  A
C706        H711   1.084       .  S
C707        C708   1.408       .  A
C707        C714   1.444       .  S
C708        C709   1.405       .  A
C709        C710   1.397       .  A
C709        H712   1.086       .  S
C710        C713   1.445       .  S
C713        N715   1.157       .  T
C714        N716   1.157       .  T
C717        C718   1.397       .  A
C717        C722   1.402       .  A
C718        C719   1.382       .  A
C718        H723   1.085       .  S
C719        C720   1.404       .  A
C719        C726   1.446       .  S
C720        C721   1.400       .  A
C721        C722   1.388       .  A
C721        H724   1.084       .  S
C722        C725   1.445       .  S
C725        N727   1.157       .  T
C726        N728   1.157       .  T
C729        C730   1.411       .  A
C729        C734   1.412       .  A
C730        C731   1.401       .  A
C730        H735   1.085       .  S
C731        C732   1.411       .  A
C731        C738   1.444       .  S
C732        C733   1.406       .  A
C733        C734   1.399       .  A
C733        H736   1.081       .  S
C734        C737   1.444   1_545  S
C737        N739   1.157       .  T
C738        N740   1.157       .  T
C741        C742   1.402       .  A
C741        C746   1.405       .  A
C742        C743   1.403       .  A
C742        H747   1.085       .  S
C743        C744   1.416       .  A
C743        C750   1.443   1_545  S
C744        C745   1.412       .  A
C745        C746   1.397       .  A
C745        H748   1.085       .  S
C746        C749   1.446       .  S
C749        N751   1.157       .  T
C750        N752   1.157       .  T
C753        C754   1.404       .  A
C753        C758   1.405       .  A
C754        C755   1.405       .  A
C754        H759   1.085       .  S
C755        C756   1.413       .  A
C755        C762   1.443       .  S
C756        C757   1.408       .  A
C757        C758   1.400       .  A
C757        H760   1.083       .  S
C758        C761   1.444       .  S
C761        N763   1.157       .  T
C762        N764   1.157       .  T
C765        C766   1.407       .  A
C765        C770   1.409       .  A
C766        C767   1.400       .  A
C766        H771   1.085       .  S
C767        C768   1.412       .  A
C767        C774   1.444   1_655  S
C768        C769   1.413       .  A
C769        C770   1.408       .  A
C769        H772   1.085       .  S
C770        C773   1.443       .  S
C773        N775   1.157       .  T
C774        N776   1.157       .  T
C777        C778   1.397       .  A
C777        C782   1.421       .  A
C778        C779   1.400       .  A
C778        H783   1.085       .  S
C779        C780   1.416       .  A
C779        C786   1.444       .  S
C780        C781   1.392       .  A
C781        C782   1.393       .  A
C781        H784   1.085       .  S
C782        C785   1.447       .  S
C785        N787   1.157       .  T
C786        N788   1.157       .  T
C789        C790   1.401       .  A
C789        C794   1.402       .  A
C790        C791   1.381       .  A
C790        H795   1.085       .  S
C791        C792   1.405       .  A
C791        C798   1.447       .  S
C792        C793   1.401       .  A
C793        C794   1.385       .  A
C793        H796   1.085       .  S
C794        C797   1.444       .  S
C797        N799   1.157       .  T
C798        N800   1.158       .  T
C801        C802   1.398       .  A
C801        C806   1.422       .  A
C802        C803   1.405       .  A
C802        H807   1.086       .  S
C803        C804   1.431       .  A
C803        C810   1.446       .  S
C804        C805   1.409       .  A
C805        C806   1.422       .  A
C805        H808   1.084       .  S
C806        C809   1.441       .  S
C809        N811   1.157       .  T
C810        N812   1.158       .  T
C813        C814   1.403       .  A
C813        C818   1.423       .  A
C814        C815   1.416       .  A
C814        H819   1.084       .  S
C815        C816   1.421   1_455  A
C815        C822   1.439       .  S
C816        C817   1.406   1_655  A
C817        C818   1.421       .  A
C817        H820   1.084   1_455  S
C818        C821   1.440       .  S
C821        N823   1.157       .  T
C822        N824   1.157       .  T
C825        C826   1.414   1_545  A
C825        C830   1.410       .  A
C826        C827   1.405   1_455  A
C826        H831   1.085       .  S
C827        C828   1.406   1_565  A
C827        C834   1.444       .  S
C828        C829   1.411       .  A
C829        C830   1.412   1_655  A
C829        H832   1.085       .  S
C830        C833   1.441       .  S
C833        N835   1.157       .  T
C834        N836   1.157       .  T
C837        C838   1.407   1_545  A
C837        C842   1.432       .  A
C838        C839   1.426       .  A
C838        H843   1.084       .  S
C839        C840   1.428   1_565  A
C839        C846   1.440       .  S
C840        C841   1.398       .  A
C841        C842   1.404       .  A
C841        H844   1.085       .  S
C842        C845   1.446       .  S
C845        N847   1.158       .  T
C846        N848   1.157       .  T
C849        C850   1.405       .  A
C849        C854   1.409       .  A
C850        C851   1.391       .  A
C850        H855   1.085       .  S
C851        C852   1.402       .  A
C851        C858   1.442       .  S
C852        C853   1.401       .  A
C853        C854   1.394       .  A
C853        H856   1.086       .  S
C854        C857   1.443       .  S
C857        N859   1.157       .  T
C858        N860   1.156       .  T
C861        C862   1.393       .  A
C861        C866   1.411       .  A
C862        C863   1.381       .  A
C862        H867   1.086       .  S
C863        C864   1.407       .  A
C863        C870   1.447       .  S
C864        C865   1.384       .  A
C865        C866   1.374       .  A
C865        H868   1.087       .  S
C866        C869   1.443       .  S
C869        N871   1.156       .  T
C870        N872   1.157       .  T
C873        C874   1.397       .  A
C873        C878   1.426       .  A
C874        C875   1.402       .  A
C874        H879   1.086       .  S
C875        C876   1.436   1_565  A
C875        C882   1.447   1_565  S
C876        C877   1.414   1_545  A
C877        C878   1.432       .  A
C877        H880   1.084   1_565  S
C878        C881   1.441       .  S
C882        N884   1.157       .  T
C885        C886   1.413       .  A
C885        C890   1.410       .  A
C886        C887   1.420       .  A
C886        H891   1.085       .  S
C887        C888   1.416       .  A
C887        C894   1.442       .  S
C888        C889   1.412       .  A
C889        C890   1.406       .  A
C889        H892   1.084       .  S
C890        C893   1.444       .  S
C893        N895   1.157       .  T
C897        C898   1.416       .  A
C897        C902   1.411       .  A
C898        C899   1.402       .  A
C898        H903   1.085       .  S
C899        C900   1.410       .  A
C899        C906   1.443       .  S
C900        C901   1.416       .  A
C901        C902   1.407       .  A
C901        H904   1.085       .  S
C902        C905   1.443       .  S
C905        N907   1.157       .  T
C906        N908   1.157       .  T
C909        C910   1.407       .  A
C909        C914   1.412       .  A
C910        C911   1.399       .  A
C910        H915   1.083       .  S
C911        C912   1.405       .  A
C911        C918   1.443       .  S
C912        C913   1.401       .  A
C913        C914   1.396       .  A
C913        H916   1.083       .  S
C914        C917   1.445       .  S
C917        N919   1.157   1_565  T
C918        N920   1.157       .  T
C921        C922   1.402   1_455  A
C921        C926   1.422       .  A
C922        C923   1.409       .  A
C922        H927   1.086       .  S
C923        C924   1.426   1_655  A
C923        C930   1.436       .  S
C924        C925   1.413       .  A
C925        C926   1.421       .  A
C925        H928   1.084       .  S
C926        C929   1.439       .  S
C929        N931   1.156       .  T
C930        N932   1.155       .  T
C933        C934   1.423       .  A
C933        C938   1.413   1_655  A
C934        C935   1.417   1_545  A
C934        H939   1.084       .  S
C935        C936   1.409       .  A
C935        C942   1.442       .  S
C936        C937   1.417   1_655  A
C937        C938   1.406   1_565  A
C937        H940   1.084       .  S
C938        C941   1.443       .  S
C941        N943   1.157       .  T
C942        N944   1.157       .  T
C945        C946   1.400       .  A
C945        C950   1.406       .  A
C946        C947   1.393       .  A
C946        H951   1.086       .  S
C947        C948   1.416       .  A
C947        C954   1.438       .  S
C948        C949   1.416       .  A
C949        C950   1.406       .  A
C949        H952   1.084       .  S
C950        C953   1.444       .  S
C953        N955   1.157       .  T
C954        N956   1.155       .  T
C957        C958   1.405       .  A
C957        C962   1.425       .  A
C958        C959   1.402       .  A
C958        H963   1.084       .  S
C959        C960   1.419       .  A
C959        C966   1.446       .  S
C960        C961   1.404       .  A
C961        C962   1.414       .  A
C961        H964   1.084       .  S
C962        C965   1.443       .  S
C966        N968   1.157       .  T
C969        C970   1.401       .  A
C970        C971   1.394       .  A
C970        H975   1.085       .  S
C971        C972   1.407   1_556  A
C971        C978   1.442       .  S
C973        C974   1.386       .  A
C973        H976   1.086       .  S
C974        C977   1.446       .  S
C977        N979   1.157       .  T
C978        N980   1.157       .  T
C981        C986   1.402       .  A
C982        C983   1.373       .  A
C982        H987   1.086       .  S
C983        C990   1.447       .  S
C984        C985   1.392       .  A
C985        C986   1.375       .  A
C985        H988   1.085       .  S
C986        C989   1.446       .  S
C989        N991   1.157       .  T
C990        N992   1.157       .  T
