geometry optimzed in LAMMPS
_audit_creation_date              2020-12-01 
_audit_creation_method            'lammps2cif' 
_symmetry_space_group_name_H-M    'P1' 
_symmetry_Int_Tables_number       1 
_symmetry_cell_setting            triclinic 
loop_ 
_symmetry_equiv_pos_as_xyz 
  x,y,z 
_cell_length_a                    29.15157416 
_cell_length_b                    29.7396257165523 
_cell_length_c                    39.343178313232514 
_cell_angle_alpha                 90.21314325964642 
_cell_angle_beta                  90.69655927205864 
_cell_angle_gamma                 89.05196434943599 
loop_ 
_atom_site_label 
_atom_site_type_symbol 
_atom_site_fract_x 
_atom_site_fract_y 
_atom_site_fract_z 
_atom_site_charge 
Zn1        Zn  0.18304199  0.29027521  0.36045837     1.49700
Zn2        Zn  0.15568966  0.36985842  0.41113939     1.49400
Zn3        Zn  0.26126913  0.32866216  0.41026863     1.49100
Zn4        Zn  0.22590181  0.38445141  0.35152703     1.49500
O5          O  0.20561020  0.34295356  0.38482539    -1.84000
O6          O  0.11871637  0.27403004  0.37382743    -0.74700
O7          O  0.18091279  0.37681354  0.46113809    -0.74500
O8          O  0.28311677  0.26574007  0.39791359    -0.74000
O9          O  0.10294745  0.32463964  0.41363986    -0.74700
O10         O  0.22536139  0.23717852  0.36821383    -0.74300
O11         O  0.24735065  0.33812873  0.45989767    -0.74900
O12         O  0.28318352  0.41554499  0.36168862    -0.74300
O13         O  0.12918162  0.42670797  0.38360712    -0.75000
O14         O  0.31531438  0.36829256  0.39845226    -0.74400
O15         O  0.17951287  0.42886281  0.34154015    -0.74900
O16         O  0.23739783  0.35329424  0.30866259    -0.74800
O17         O  0.18781068  0.29762957  0.30998861    -0.74600
C18         C  0.09210524  0.28957308  0.39663697     0.77200
C19         C  0.21624166  0.35933779  0.47643588     0.77700
C20         C  0.26556878  0.23357938  0.38094194     0.76700
C21         C  0.31774377  0.40189844  0.37866751     0.77000
C22         C  0.14302571  0.44281619  0.35521158     0.78200
C23         C  0.21790353  0.32022967  0.29469057     0.77200
Zn24       Zn  0.23454337  0.16773927  0.07956464     1.49700
Zn25       Zn  0.27774469  0.14056607  0.14643610     1.49400
Zn26       Zn  0.33679736  0.12371852  0.08069059     1.49100
Zn27       Zn  0.31134993  0.22338950  0.10338268     1.49500
O28         O  0.29207338  0.16175326  0.10247743    -1.84000
O29         O  0.18731997  0.12615939  0.09685354    -0.74700
O30         O  0.32116085  0.09302610  0.16092459    -0.74500
O31         O  0.31390986  0.11923622  0.02983286    -0.74000
O32         O  0.21777979  0.11045707  0.14727331    -0.74700
O33         O  0.24602247  0.15498657  0.03121602    -0.74300
O34         O  0.34351219  0.06463315  0.11093984    -0.74900
O35         O  0.37779808  0.22812185  0.09456500    -0.74300
O36         O  0.27210822  0.19099170  0.17851706    -0.75000
O37         O  0.39844871  0.15757939  0.08152520    -0.74400
O38         O  0.29638483  0.24940461  0.14874838    -0.74900
O39         O  0.27468852  0.26263509  0.07161847    -0.74800
O40         O  0.21143533  0.23062899  0.08749171    -0.74600
C41         C  0.18573746  0.10674911  0.12549176     0.77200
C42         C  0.33825509  0.06106686  0.14334887     0.77700
C43         C  0.27808800  0.13579174  0.01460841     0.76700
C44         C  0.40824430  0.19889197  0.08688108     0.77000
C45         C  0.27922221  0.23269130  0.17525526     0.78200
C46         C  0.23337183  0.26610395  0.08109697     0.77200
Zn47       Zn  0.43056735  0.00271040  0.32104302     1.49700
Zn48       Zn  0.38475580  0.97698180  0.38697349     1.49400
Zn49       Zn  0.38098171  0.90458347  0.32623689     1.49100
Zn50       Zn  0.47084036  0.92522987  0.36933769     1.49500
O51         O  0.41584322  0.95140819  0.34901129    -1.84000
O52         O  0.39422404  0.05929883  0.33375166    -0.74700
O53         O  0.33675968  0.93691261  0.40230111    -0.74500
O54         O  0.36649845  0.92991796  0.27670104    -0.74000
O55         O  0.35674730  0.03693285  0.37904302    -0.74700
O56         O  0.41353539  0.98848716  0.27319196    -0.74300
O57         O  0.32581416  0.88790632  0.35992392    -0.74900
O58         O  0.48528744  0.86402573  0.35158487    -0.74300
O59         O  0.42916308  0.98543991  0.42441557    -0.75000
O60         O  0.42408484  0.84805161  0.32041223    -0.74400
O61         O  0.46873846  0.92182784  0.41990574    -0.74900
O62         O  0.52240838  0.96730730  0.36292558    -0.74800
O63         O  0.49667238  0.01992182  0.32739685    -0.74600
C64         C  0.36612824  0.06703821  0.35766175     0.77200
C65         C  0.31575940  0.90371232  0.38964677     0.77700
C66         C  0.38524236  0.96148350  0.25944926     0.76700
C67         C  0.46388193  0.83703479  0.33225170     0.77000
C68         C  0.45849817  0.95744399  0.43611582     0.78200
C69         C  0.52768192  0.00406071  0.34722820     0.77200
Zn70       Zn  0.53752657  0.07102677  0.61775844     1.49700
Zn71       Zn  0.57849556  0.99303430  0.66437030     1.49400
Zn72       Zn  0.62597633  0.02342983  0.60127175     1.49100
Zn73       Zn  0.62806975  0.09356225  0.66217601     1.49500
O74         O  0.59283713  0.04664411  0.63867374    -1.84000
O75         O  0.48340081  0.03590805  0.63029109    -0.74700
O76         O  0.61146428  0.93585977  0.64642202    -0.74500
O77         O  0.58375048  0.00824554  0.56394110    -0.74000
O78         O  0.51029547  0.98126764  0.66313789    -0.74700
O79         O  0.53589427  0.06615847  0.56694768    -0.74300
O80         O  0.65854832  0.96684745  0.60994708    -0.74900
O81         O  0.68858587  0.10480850  0.63285764    -0.74300
O82         O  0.59920981  0.00421858  0.71188724    -0.75000
O83         O  0.67244925  0.06476716  0.58631557    -0.74400
O84         O  0.63790460  0.06881563  0.71290948    -0.74900
O85         O  0.58805035  0.15395834  0.66122890    -0.74800
O86         O  0.52694266  0.13390300  0.63063225    -0.74600
C87         C  0.47722399  0.00025288  0.64700853     0.77200
C88         C  0.64460785  0.93279007  0.62561493     0.77700
C89         C  0.55043574  0.03105837  0.55187441     0.76700
C90         C  0.69781071  0.09215439  0.60222407     0.77000
C91         C  0.62240834  0.03362287  0.72789599     0.78200
C92         C  0.54925574  0.16350153  0.64678664     0.77200
Zn93       Zn  0.88299548  0.97051453  0.10835403     1.49700
Zn94       Zn  0.92823035  0.00405578  0.17105632     1.49400
Zn95       Zn  0.87908300  0.90562412  0.16910483     1.49100
Zn96       Zn  0.97194764  0.92431696  0.12944419     1.49500
O97         O  0.91574315  0.94955291  0.14667453    -1.84000
O98         O  0.84267417  0.02238495  0.11773342    -0.74700
O99         O  0.91428013  0.99280472  0.21997737    -0.74500
O100        O  0.82198488  0.89025266  0.13588898    -0.74000
O101        O  0.88779880  0.05649423  0.15482055    -0.74700
O102        O  0.84450859  0.92481757  0.08892191    -0.74300
O103        O  0.86857211  0.93280690  0.21800470    -0.74900
O104        O  0.97982584  0.86055283  0.14247098    -0.74300
O105        O  0.99368790  0.02159105  0.16313906    -0.75000
O106        O  0.91872202  0.84771314  0.17420443    -0.74400
O107        O  0.02640620  0.95771278  0.14614409    -0.74900
O108        O  0.97622855  0.93268937  0.07909703    -0.74800
O109        O  0.92606409  0.98919552  0.07379303    -0.74600
C110        C  0.85371037  0.05719211  0.13424309     0.77200
C111        C  0.88741885  0.96550243  0.23442061     0.77700
C112        C  0.81779572  0.89844620  0.10375124     0.76700
C113        C  0.95686649  0.83481053  0.16126534     0.77000
C114        C  0.02894169  0.99906758  0.15383462     0.78200
C115        C  0.96088632  0.96732689  0.06355695     0.77200
Zn116      Zn  0.03460776  0.07044728  0.88058882     1.49700
Zn117      Zn  0.12151559  0.08966448  0.83471571     1.49400
Zn118      Zn  0.12726347  0.02283196  0.89820156     1.49100
Zn119      Zn  0.07399524  0.98908576  0.83598489     1.49500
O120        O  0.08968072  0.04361576  0.86093438    -1.84000
O121        O  0.02382812  0.13369597  0.86606490    -0.74700
O122        O  0.18097976  0.10899418  0.86269312    -0.74500
O123        O  0.08995446  0.01566635  0.93853935    -0.74000
O124        O  0.07874372  0.14656294  0.82908603    -0.74700
O125        O  0.03391658  0.06618026  0.93129022    -0.74300
O126        O  0.17697192  0.06408293  0.90778937    -0.74900
O127        O  0.11330724  0.93425301  0.85044351    -0.74300
O128        O  0.13219659  0.06163814  0.78641768    -0.75000
O129        O  0.15444090  0.96247507  0.89252365    -0.74400
O130        O  0.08872259  0.00010897  0.78672401    -0.74900
O131        O  0.00679625  0.97308693  0.84469984    -0.74800
O132        O  0.97879608  0.03528223  0.86841542    -0.74600
C133        C  0.04197917  0.15906218  0.84427443     0.77200
C134        C  0.19582787  0.09578212  0.89201871     0.77700
C135        C  0.05401941  0.03564146  0.94864055     0.76700
C136        C  0.14412855  0.92970701  0.87349388     0.77000
C137        C  0.11434453  0.02761592  0.77117204     0.78200
C138        C  0.97347180  0.99529512  0.85783861     0.77200
Zn139      Zn  0.77372768  0.13806225  0.35444311     1.49700
Zn140      Zn  0.84427927  0.12684283  0.41613515     1.49400
Zn141      Zn  0.81521213  0.22417976  0.38744224     1.49100
Zn142      Zn  0.74207751  0.17318418  0.42242247     1.49500
O143        O  0.79587337  0.16375397  0.39563474    -1.84000
O144        O  0.81748316  0.09374267  0.33694842    -0.74700
O145        O  0.90480235  0.16417231  0.41672252    -0.74500
O146        O  0.78950405  0.24559689  0.34282284    -0.74000
O147        O  0.85251162  0.06847489  0.38406998    -0.74700
O148        O  0.75879904  0.18482140  0.32007837    -0.74300
O149        O  0.88341572  0.22821225  0.39155078    -0.74900
O150        O  0.71897282  0.23654218  0.41507084    -0.74300
O151        O  0.82332965  0.11804281  0.46704207    -0.75000
O152        O  0.78576328  0.26890848  0.41908288    -0.74400
O153        O  0.75937347  0.16050719  0.47006736    -0.74900
O154        O  0.69050068  0.13184777  0.41028486    -0.74800
O155        O  0.71609304  0.10458295  0.36149943    -0.74600
C156        C  0.84134017  0.06392337  0.35235416     0.77200
C157        C  0.91428469  0.20343459  0.40556566     0.77700
C158        C  0.76587482  0.22680700  0.31960901     0.76700
C159        C  0.74241767  0.27217777  0.41628108     0.77000
C160        C  0.79037916  0.13616202  0.48426351     0.78200
C161        C  0.68599602  0.10650246  0.38447409     0.77200
Zn162      Zn  0.68708443  0.28624577  0.07499796     1.49700
Zn163      Zn  0.64707730  0.33966486  0.13810386     1.49400
Zn164      Zn  0.75139255  0.31915456  0.13406111     1.49100
Zn165      Zn  0.71219699  0.39166630  0.08459978     1.49500
O166        O  0.69847847  0.33455254  0.10709647    -1.84000
O167        O  0.61960881  0.26906326  0.07518608    -0.74700
O168        O  0.66174968  0.31633330  0.18547955    -0.74500
O169        O  0.77724735  0.25940574  0.12303711    -0.74000
O170        O  0.59182695  0.30633994  0.11998343    -0.74700
O171        O  0.72425411  0.23025931  0.08888877    -0.74300
O172        O  0.73717212  0.31459514  0.18191986    -0.74900
O173        O  0.77872429  0.40942744  0.09187348    -0.74300
O174        O  0.63630761  0.40477307  0.14726192    -0.75000
O175        O  0.79954548  0.36334518  0.13277437    -0.74400
O176        O  0.67819117  0.44349516  0.11067542    -0.74900
O177        O  0.70857299  0.38244082  0.03228879    -0.74800
O178        O  0.70694796  0.30731351  0.02842890    -0.74600
C179        C  0.58682325  0.27880339  0.09529794     0.77200
C180        C  0.70117897  0.31164368  0.19925987     0.77700
C181        C  0.75997136  0.22602778  0.10775286     0.76700
C182        C  0.80795915  0.39650123  0.11398463     0.77000
C183        C  0.65239307  0.44173244  0.13686991     0.78200
C184        C  0.71319155  0.34582906  0.01506877     0.77200
Zn185      Zn  0.78604805  0.59942588  0.58933075     1.49700
Zn186      Zn  0.84169748  0.66542002  0.64037393     1.49400
Zn187      Zn  0.81004688  0.70231792  0.56934805     1.49100
Zn188      Zn  0.73706116  0.68050136  0.62449084     1.49500
O189        O  0.79462602  0.66101668  0.60541823    -1.84000
O190        O  0.82536078  0.55521127  0.61905497    -0.74700
O191        O  0.90047605  0.69189708  0.62111139    -0.74500
O192        O  0.79228518  0.67339969  0.52509872    -0.74000
O193        O  0.85178547  0.60258301  0.65874893    -0.74700
O194        O  0.78454330  0.60034747  0.53621808    -0.74300
O195        O  0.87817594  0.71614208  0.57006314    -0.74900
O196        O  0.71544737  0.73775643  0.60528121    -0.74300
O197        O  0.81893028  0.70410439  0.67998632    -0.75000
O198        O  0.77342904  0.76119140  0.57431022    -0.74400
O199        O  0.74392507  0.69518788  0.67256372    -0.74900
O200        O  0.68717654  0.63695353  0.62291585    -0.74800
O201        O  0.72302038  0.57763802  0.60111186    -0.74600
C202        C  0.84393801  0.56271380  0.64827702     0.77200
C203        C  0.90928535  0.71091444  0.59286795     0.77700
C204        C  0.78283769  0.63364304  0.51538482     0.76700
C205        C  0.73503987  0.76833385  0.58877758     0.77000
C206        C  0.77768045  0.70866692  0.69004258     0.78200
C207        C  0.68777529  0.59598886  0.61427053     0.77200
Zn208      Zn  0.64677174  0.83400662  0.85944030     1.49700
Zn209      Zn  0.70681466  0.89830738  0.90957152     1.49400
Zn210      Zn  0.68177280  0.79379480  0.92872131     1.49100
Zn211      Zn  0.74923858  0.82059870  0.86949364     1.49500
O212        O  0.69472243  0.83764095  0.89358092    -1.84000
O213        O  0.63661894  0.89734581  0.84143200    -0.74700
O214        O  0.71068633  0.89571250  0.96291012    -0.74500
O215        O  0.61471696  0.77353191  0.92677818    -0.74000
O216        O  0.66778540  0.94340103  0.88027673    -0.74700
O217        O  0.59022700  0.80284211  0.87767706    -0.74300
O218        O  0.70087104  0.82244368  0.97349349    -0.74900
O219        O  0.76328802  0.75709373  0.87801988    -0.74300
O220        O  0.77055142  0.91833302  0.89595651    -0.75000
O221        O  0.71995380  0.73630090  0.92103330    -0.74400
O222        O  0.80519650  0.85669365  0.87741754    -0.74900
O223        O  0.73902158  0.82467047  0.82032046    -0.74800
O224        O  0.66977774  0.79579027  0.81983040    -0.74600
C225        C  0.64755582  0.93672203  0.85148850     0.77200
C226        C  0.71230386  0.86183447  0.98329457     0.77700
C227        C  0.58366046  0.77837740  0.90379479     0.76700
C228        C  0.75033644  0.72754206  0.89880482     0.77000
C229        C  0.80598743  0.89827170  0.88439277     0.78200
C230        C  0.70864348  0.80106261  0.80612489     0.77200
Zn231      Zn  0.58283231  0.48583231  0.32510999     1.49700
Zn232      Zn  0.52658980  0.56485168  0.35561743     1.49400
Zn233      Zn  0.61185397  0.52346244  0.39373613     1.49100
Zn234      Zn  0.62640304  0.58626110  0.32774763     1.49500
O235        O  0.58872885  0.54140651  0.34995017    -1.84000
O236        O  0.51739005  0.46631903  0.33230391    -0.74700
O237        O  0.50345608  0.55344764  0.40248734    -0.74500
O238        O  0.64191165  0.46359571  0.39395842    -0.74000
O239        O  0.48177331  0.53142199  0.32650133    -0.74700
O240        O  0.62418878  0.43498816  0.34351756    -0.74300
O241        O  0.56282072  0.51941915  0.42794302    -0.74900
O242        O  0.68188247  0.59999040  0.36159116    -0.74300
O243        O  0.52151627  0.63001154  0.34530406    -0.75000
O244        O  0.65942645  0.56448103  0.40847897    -0.74400
O245        O  0.58774393  0.64560163  0.32130657    -0.74900
O246        O  0.64066285  0.56139024  0.27862767    -0.74800
O247        O  0.59925424  0.49858875  0.27654026    -0.74600
C248        C  0.48018933  0.48940574  0.33153790     0.77200
C249        C  0.52127613  0.53264461  0.42759043     0.77700
C250        C  0.64390168  0.43187019  0.37251276     0.76700
C251        C  0.68659972  0.59037954  0.39340344     0.77000
C252        C  0.54718342  0.65753347  0.33028589     0.78200
C253        C  0.62372586  0.52801451  0.26199014     0.77200
Zn254      Zn  0.42257557  0.50521580  0.65941951     1.49700
Zn255      Zn  0.37501045  0.40382236  0.65792859     1.49400
Zn256      Zn  0.36414819  0.47752638  0.60151160     1.49100
Zn257      Zn  0.45696870  0.42911116  0.60899624     1.49500
O258        O  0.40552152  0.45216736  0.63403040    -1.84000
O259        O  0.40556282  0.49348156  0.70804192    -0.74700
O260        O  0.31461328  0.38638027  0.62943667    -0.74500
O261        O  0.32903997  0.53082771  0.61660583    -0.74000
O262        O  0.36744651  0.42851707  0.70777282    -0.74700
O263        O  0.38864373  0.56145048  0.64180163    -0.74300
O264        O  0.32007689  0.43455799  0.58664383    -0.74900
O265        O  0.44918601  0.44069526  0.55879571    -0.74300
O266        O  0.41835228  0.34720086  0.65851853    -0.75000
O267        O  0.39749520  0.49623923  0.56111991    -0.74400
O268        O  0.47059891  0.36499554  0.62025848    -0.74900
O269        O  0.51321844  0.46294215  0.62035449    -0.74800
O270        O  0.48978990  0.51912972  0.65331714    -0.74600
C271        C  0.38296687  0.46338956  0.72347401     0.77200
C272        C  0.30097062  0.40151242  0.60028592     0.77700
C273        C  0.35002061  0.56539533  0.62650986     0.76700
C274        C  0.42916334  0.47510674  0.54583128     0.77000
C275        C  0.45392573  0.33711098  0.64102051     0.78200
C276        C  0.52091443  0.49943398  0.63601241     0.77200
Zn277      Zn  0.21090567  0.90430908  0.58500520     1.49700
Zn278      Zn  0.25750327  0.82760738  0.62641414     1.49400
Zn279      Zn  0.15284310  0.83812614  0.63464463     1.49100
Zn280      Zn  0.19135302  0.79786248  0.56821703     1.49500
O281        O  0.20194131  0.84330063  0.60238840    -1.84000
O282        O  0.27558492  0.92736733  0.59487078    -0.74700
O283        O  0.24570976  0.80564909  0.67234544    -0.74500
O284        O  0.14223376  0.89935057  0.65366883    -0.74000
O285        O  0.30009676  0.87714442  0.63220699    -0.74700
O286        O  0.17201749  0.94781230  0.61672172    -0.74300
O287        O  0.17042265  0.79767867  0.67430991    -0.74900
O288        O  0.12370739  0.77811192  0.56750437    -0.74300
O289        O  0.29086033  0.77654798  0.60463755    -0.75000
O290        O  0.09597818  0.81222014  0.61356862    -0.74400
O291        O  0.23104697  0.74280795  0.58149281    -0.74900
O292        O  0.21122387  0.82516586  0.52312613    -0.74800
O293        O  0.21159512  0.89978230  0.53130110    -0.74600
C294        C  0.30572440  0.91328000  0.61608857     0.77200
C295        C  0.21038391  0.79144989  0.68687040     0.77700
C296        C  0.15163114  0.93927988  0.64487428     0.76700
C297        C  0.09066034  0.78687641  0.58771784     0.77000
C298        C  0.27118283  0.74097200  0.59491761     0.78200
C299        C  0.21776520  0.86499510  0.51200722     0.77200
Zn300      Zn  0.25996699  0.62276937  0.85566927     1.49700
Zn301      Zn  0.24208390  0.66384987  0.92546117     1.49400
Zn302      Zn  0.33847769  0.61111231  0.91231925     1.49100
Zn303      Zn  0.31381702  0.70423904  0.87378718     1.49500
O304        O  0.29015193  0.65016769  0.89329758    -1.84000
O305        O  0.20438901  0.59090487  0.86951384    -0.74700
O306        O  0.26385326  0.64792925  0.97214987    -0.74500
O307        O  0.34963869  0.55745459  0.87666019    -0.74000
O308        O  0.18698699  0.62419639  0.91816293    -0.74700
O309        O  0.30132685  0.57818411  0.83508035    -0.74300
O310        O  0.31694820  0.59433793  0.96229567    -0.74900
O311        O  0.38012824  0.71154220  0.88684264    -0.74300
O312        O  0.22041172  0.72863875  0.92053249    -0.75000
O313        O  0.39848197  0.64867108  0.91523662    -0.74400
O314        O  0.27562038  0.75648605  0.88878623    -0.74900
O315        O  0.30372988  0.70825154  0.82270238    -0.74800
O316        O  0.24121894  0.66718872  0.82016064    -0.74600
C317        C  0.17804107  0.59605857  0.89470225     0.77200
C318        C  0.28903852  0.61514066  0.98247154     0.77700
C319        C  0.33305554  0.55238094  0.84633575     0.76700
C320        C  0.40910384  0.68717886  0.90326388     0.77000
C321        C  0.23782376  0.76108864  0.90430061     0.78200
C322        C  0.26636054  0.69737149  0.80790050     0.77200
Zn323      Zn  0.86489945  0.46984283  0.89636708     1.49700
Zn324      Zn  0.91620060  0.50239925  0.83760564     1.49400
Zn325      Zn  0.95464904  0.42231369  0.88430032     1.49100
Zn326      Zn  0.87097938  0.40246675  0.83421087     1.49500
O327        O  0.90175621  0.44785841  0.86052297    -1.84000
O328        O  0.82601171  0.52321881  0.88638384    -0.74700
O329        O  0.98111539  0.52087678  0.85019117    -0.74500
O330        O  0.94920932  0.42935734  0.93527269    -0.74000
O331        O  0.87359023  0.55412076  0.85063069    -0.74700
O332        O  0.90807462  0.49142552  0.93133241    -0.74300
O333        O  0.00895902  0.46008907  0.87653407    -0.74900
O334        O  0.91543693  0.34733498  0.82931624    -0.74300
O335        O  0.90451458  0.49247886  0.78827892    -0.75000
O336        O  0.96920261  0.35902257  0.86892549    -0.74400
O337        O  0.85962978  0.43201218  0.78564168    -0.74900
O338        O  0.81547349  0.38055450  0.86455838    -0.74800
O339        O  0.82575579  0.42171334  0.91176256    -0.74600
C340        C  0.83868690  0.55702111  0.86966537     0.77200
C341        C  0.01344882  0.50004543  0.86603959     0.77700
C342        C  0.94023412  0.46916564  0.94549481     0.76700
C343        C  0.95157459  0.33446845  0.84573906     0.77000
C344        C  0.87860126  0.46606036  0.77147133     0.78200
C345        C  0.80633478  0.38988617  0.89585267     0.77200
Zn346      Zn  0.09036021  0.59396282  0.10840129     1.49700
Zn347      Zn  0.14588843  0.52389738  0.15930449     1.49400
Zn348      Zn  0.04005856  0.55695627  0.17272102     1.49100
Zn349      Zn  0.06646726  0.49216943  0.11373124     1.49500
O350        O  0.08661894  0.54288681  0.13939704    -1.84000
O351        O  0.15614949  0.59821807  0.09459866    -0.74700
O352        O  0.14003459  0.52671592  0.21259489    -0.74500
O353        O  0.02403131  0.62345660  0.17293483    -0.74000
O354        O  0.19707662  0.55467322  0.13049359    -0.74700
O355        O  0.06313011  0.65094411  0.12954122    -0.74300
O356        O  0.06422201  0.53714069  0.21860549    -0.74900
O357        O  0.00888275  0.46775311  0.13016085    -0.74300
O358        O  0.16108015  0.45741342  0.14966394    -0.75000
O359        O  0.98131844  0.52374689  0.16182040    -0.74400
O360        O  0.11102679  0.44303766  0.10896021    -0.74900
O361        O  0.05144292  0.50907619  0.06773666    -0.74800
O362        O  0.05649525  0.58301001  0.06353243    -0.74600
C363        C  0.19399380  0.57973392  0.10390274     0.77200
C364        C  0.10372255  0.52709059  0.23101726     0.77700
C365        C  0.03556908  0.65626950  0.15429656     0.76700
C366        C  0.97608090  0.48706494  0.14551376     0.77000
C367        C  0.14596552  0.43164869  0.12632248     0.78200
C368        C  0.04653982  0.54490520  0.05090582     0.77200
C369        C  0.01713605  0.48065626  0.97408900    -0.01800
C370        C  0.96973073  0.49208725  0.97112634     0.07900
C371        C  0.95250411  0.53006801  0.98946618    -0.01900
C372        C  0.98187513  0.55486360  0.01076469    -0.01900
C373        C  0.02681455  0.53942102  0.01677205     0.08000
C374        C  0.04525187  0.50451939  0.99673358    -0.02100
Br375      Br  0.10936023  0.48807676  0.00229546    -0.00600
Br376      Br  0.04539443  0.43196470  0.94867543    -0.00700
Br377      Br  0.96057315  0.60922009  0.03288199    -0.00700
Br378      Br  0.88796869  0.54640521  0.98930854    -0.00600
C379        C  0.09269737  0.58904719  0.90139634    -0.01800
C380        C  0.13598835  0.56914796  0.89522053     0.07900
C381        C  0.13858044  0.52406366  0.88444079    -0.01900
C382        C  0.09917409  0.50253321  0.87233824    -0.01900
C383        C  0.05584685  0.52376231  0.87564391     0.08000
C384        C  0.05275360  0.56524843  0.89318091    -0.02100
Br385      Br  0.99456548  0.58720806  0.90953405    -0.00600
Br386      Br  0.08729622  0.64839061  0.92098050    -0.00700
Br387      Br  0.10573532  0.44514407  0.85004618    -0.00700
Br388      Br  0.19516469  0.49046022  0.89052474    -0.00600
C389        C  0.27853848  0.63341934  0.04442060    -0.01800
C390        C  0.28131001  0.60045989  0.01839252     0.07900
C391        C  0.26402764  0.55727597  0.02496670    -0.01900
C392        C  0.23994397  0.54899458  0.05535491    -0.01900
C393        C  0.23288144  0.58360469  0.07966421     0.08000
C394        C  0.25376864  0.62534675  0.07448130    -0.02100
Br395      Br  0.24467136  0.67276530  0.10732547    -0.00600
Br396      Br  0.30675098  0.69089022  0.03787736    -0.00700
Br397      Br  0.21056510  0.49197838  0.06120335    -0.00700
Br398      Br  0.26775770  0.51100807  0.99050955    -0.00600
C399        C  0.21949573  0.71991689  0.71892573    -0.01800
C400        C  0.21763200  0.76725112  0.71887287     0.07900
C401        C  0.23173638  0.79154158  0.74772249    -0.01900
C402        C  0.24755694  0.76868049  0.77681803    -0.01900
C403        C  0.25065942  0.72120736  0.77686684     0.08000
C404        C  0.23616162  0.69682797  0.74785017    -0.02100
Br405      Br  0.24207807  0.63204689  0.74661242    -0.00600
Br406      Br  0.20227264  0.68705707  0.67842335    -0.00700
Br407      Br  0.26326533  0.80315836  0.81669433    -0.00700
Br408      Br  0.23057153  0.85655879  0.74677089    -0.00600
C409        C  0.33254517  0.64551728  0.64231338    -0.01800
C410        C  0.33028527  0.61039394  0.61834236     0.07900
C411        C  0.31080285  0.61890228  0.58570964    -0.01900
C412        C  0.29213184  0.66166030  0.57778738    -0.01900
C413        C  0.29416862  0.69684512  0.60184830     0.08000
C414        C  0.31609268  0.68880388  0.63379970    -0.02100
Br415      Br  0.32381763  0.73591939  0.66720838    -0.00600
Br416      Br  0.35531378  0.63388145  0.68795329    -0.00700
Br417      Br  0.26656973  0.67255010  0.53292177    -0.00700
Br418      Br  0.31158931  0.57315353  0.55057383    -0.00600
C419        C  0.32774974  0.47046440  0.77213307    -0.01800
C420        C  0.37308396  0.47196819  0.76026534     0.07900
C421        C  0.40739348  0.49005857  0.78198515    -0.01900
C422        C  0.39547018  0.51209328  0.81275417    -0.01900
C423        C  0.34897563  0.51654857  0.82200437     0.08000
C424        C  0.31563911  0.49343227  0.80225569    -0.02100
Br425      Br  0.25179665  0.49615047  0.81444737    -0.00600
Br426      Br  0.28080853  0.44034640  0.74594119    -0.00700
Br427      Br  0.44245980  0.53998335  0.84007676    -0.00700
Br428      Br  0.47102430  0.48500625  0.76925198    -0.00600
C429        C  0.47192868  0.47821897  0.45644142    -0.01800
C430        C  0.49249429  0.52072839  0.45615321     0.07900
C431        C  0.48765244  0.55019113  0.48384012    -0.01900
C432        C  0.46316682  0.53658783  0.51240761    -0.01900
C433        C  0.44531010  0.49271466  0.51355109     0.08000
C434        C  0.44781726  0.46437620  0.48501168    -0.02100
Br435      Br  0.41711933  0.40729034  0.48483710    -0.00600
Br436      Br  0.47942602  0.43761754  0.41874001    -0.00700
Br437      Br  0.45726118  0.57704782  0.55074084    -0.00700
Br438      Br  0.51795901  0.60735527  0.48362414    -0.00600
C439        C  0.47206041  0.72679871  0.93573016    -0.01800
C440        C  0.45673280  0.70409409  0.90626477     0.07900
C441        C  0.48471307  0.70302137  0.87735535    -0.01900
C442        C  0.52670868  0.72585346  0.87727954    -0.01900
C443        C  0.54039334  0.75207912  0.90565143     0.08000
C444        C  0.51334186  0.75138838  0.93529979    -0.02100
Br445      Br  0.53100051  0.78626506  0.97459030    -0.00600
Br446      Br  0.43592746  0.72458507  0.97638312    -0.00700
Br447      Br  0.56652784  0.71877270  0.83863112    -0.00700
Br448      Br  0.46500936  0.67006384  0.83754035    -0.00600
C449        C  0.81983592  0.68032081  0.89055613    -0.01800
C450        C  0.77215852  0.68258573  0.89580554     0.07900
C451        C  0.74575663  0.64354791  0.89177197    -0.01900
C452        C  0.76696512  0.60284771  0.88135876    -0.01900
C453        C  0.81476275  0.60092203  0.87513118     0.08000
C454        C  0.84069382  0.64049955  0.87886191    -0.02100
Br455      Br  0.90491750  0.64220201  0.86774857    -0.00600
Br456      Br  0.85744124  0.73181503  0.90113652    -0.00700
Br457      Br  0.72935837  0.55100981  0.87261877    -0.00700
Br458      Br  0.68034465  0.64588389  0.89914709    -0.00600
C459        C  0.00678887  0.79093447  0.57285616    -0.01800
C460        C  0.04551561  0.76525368  0.58295689     0.07900
C461        C  0.03994107  0.72035842  0.59331274    -0.01900
C462        C  0.99567675  0.70200942  0.59531941    -0.01900
C463        C  0.95636427  0.72841630  0.58691664     0.08000
C464        C  0.96246941  0.77257242  0.57439155    -0.02100
Br465      Br  0.91045401  0.80968679  0.56114625    -0.00600
Br466      Br  0.01480567  0.85192071  0.55769935    -0.00700
Br467      Br  0.98939522  0.64016749  0.60890170    -0.00700
Br468      Br  0.09309285  0.68476019  0.60669111    -0.00600
C469        C  0.81677133  0.50637974  0.69073153    -0.01800
C470        C  0.85345472  0.52542119  0.67283966     0.07900
C471        C  0.89859324  0.51689578  0.68437007    -0.01900
C472        C  0.90694951  0.49312896  0.71492567    -0.01900
C473        C  0.86998386  0.47822287  0.73493544     0.08000
C474        C  0.82479374  0.48368831  0.72193028    -0.02100
Br475      Br  0.77319993  0.46606655  0.74885073    -0.00600
Br476      Br  0.75486685  0.51491015  0.67399480    -0.00700
Br477      Br  0.96958929  0.48316655  0.73004675    -0.00700
Br478      Br  0.94893901  0.53951765  0.65855318    -0.00600
C479        C  0.74934988  0.70747632  0.74895517    -0.01800
C480        C  0.76640214  0.73217877  0.72161738     0.07900
C481        C  0.76119214  0.77926938  0.72103721    -0.01900
C482        C  0.73862022  0.80175108  0.74756737    -0.01900
C483        C  0.72171574  0.77711254  0.77504619     0.08000
C484        C  0.72697092  0.72988210  0.77568074    -0.02100
Br485      Br  0.70501843  0.69581093  0.81352260    -0.00600
Br486      Br  0.75744107  0.64292099  0.74969626    -0.00700
Br487      Br  0.72904415  0.86617027  0.74572070    -0.00700
Br488      Br  0.78390944  0.81277961  0.68336451    -0.00600
C489        C  0.62860725  0.56655650  0.65327654    -0.01800
C490        C  0.64678539  0.56924677  0.62026794     0.07900
C491        C  0.62521762  0.54728384  0.59296017    -0.01900
C492        C  0.58518002  0.52287089  0.59842428    -0.01900
C493        C  0.56585795  0.52103046  0.63138407     0.08000
C494        C  0.58821352  0.54255971  0.65884629    -0.02100
Br495      Br  0.56498666  0.53791731  0.70445880    -0.00600
Br496      Br  0.65961337  0.59496701  0.69119093    -0.00700
Br497      Br  0.55647579  0.49452151  0.55952826    -0.00700
Br498      Br  0.64860943  0.55376757  0.54740436    -0.00600
C499        C  0.73304525  0.65816962  0.46536785    -0.01800
C500        C  0.76586618  0.62734861  0.47955603     0.07900
C501        C  0.77951238  0.58963006  0.45998219    -0.01900
C502        C  0.75787294  0.58078741  0.42833837    -0.01900
C503        C  0.72272580  0.60958283  0.41565404     0.08000
C504        C  0.71201136  0.64924789  0.43358167    -0.02100
Br505      Br  0.66367433  0.68837228  0.41628631    -0.00600
Br506      Br  0.71153273  0.71017674  0.49063604    -0.00700
Br507      Br  0.77362320  0.52705368  0.40330729    -0.00700
Br508      Br  0.82730178  0.54947867  0.47656373    -0.00600
C509        C  0.59352076  0.51143266  0.20337434    -0.01800
C510        C  0.63140994  0.52172643  0.22465145     0.07900
C511        C  0.67595879  0.51811936  0.21103661    -0.01900
C512        C  0.68255666  0.49854145  0.17847648    -0.01900
C513        C  0.64486685  0.48127651  0.15976076     0.08000
C514        C  0.60021869  0.49060000  0.17148662    -0.02100
Br515      Br  0.54819872  0.47106433  0.14488733    -0.00600
Br516      Br  0.53200282  0.52451211  0.21855720    -0.00700
Br517      Br  0.74395194  0.49036274  0.16162720    -0.00700
Br518      Br  0.72841787  0.53517690  0.23820425    -0.00600
C519        C  0.88796507  0.39783201  0.13815741    -0.01800
C520        C  0.85194898  0.42017898  0.11996202     0.07900
C521        C  0.85739852  0.46598101  0.11078242    -0.01900
C522        C  0.89734947  0.48868739  0.12089777    -0.01900
C523        C  0.93075712  0.46704015  0.14143075     0.08000
C524        C  0.92541673  0.42197369  0.15061482    -0.02100
Br525      Br  0.96990163  0.39316878  0.18042523    -0.00600
Br526      Br  0.89064357  0.33292910  0.14297829    -0.00700
Br527      Br  0.90817881  0.54852083  0.10431153    -0.00700
Br528      Br  0.81242363  0.49841995  0.08338712    -0.00600
C529        C  0.70844594  0.37391505  0.95432676    -0.01800
C530        C  0.73068860  0.34759010  0.97954473     0.07900
C531        C  0.77249542  0.32523662  0.97147804    -0.01900
C532        C  0.79370033  0.33286200  0.93999659    -0.01900
C533        C  0.77423214  0.36360736  0.91659036     0.08000
C534        C  0.73013776  0.38173492  0.92293882    -0.02100
Br535      Br  0.70122986  0.41975020  0.88919342    -0.00600
Br536      Br  0.64891292  0.40009230  0.96319565    -0.00700
Br537      Br  0.85254411  0.30534688  0.93022498    -0.00700
Br538      Br  0.80449203  0.28886835  0.00504949    -0.00600
C539        C  0.64719643  0.35956925  0.40391265    -0.01800
C540        C  0.66882382  0.39062447  0.38280993     0.07900
C541        C  0.71603198  0.38635026  0.37683732    -0.01900
C542        C  0.74172234  0.35084876  0.39169074    -0.01900
C543        C  0.71918681  0.31654171  0.40992445     0.08000
C544        C  0.67184288  0.32223706  0.41693470    -0.02100
Br545      Br  0.64050452  0.28084682  0.44615397    -0.00600
Br546      Br  0.58352555  0.36868057  0.41526066    -0.00700
Br547      Br  0.80768291  0.35208515  0.38768942    -0.00700
Br548      Br  0.74516716  0.42930638  0.34778633    -0.00600
C549        C  0.76686016  0.29241080  0.27946558    -0.01800
C550        C  0.74447547  0.25433996  0.29224504     0.07900
C551        C  0.70035171  0.24344136  0.27926419    -0.01900
C552        C  0.68249285  0.26574279  0.25043280    -0.01900
C553        C  0.70769803  0.30023284  0.23547268     0.08000
C554        C  0.74701393  0.31659001  0.25237930    -0.02100
Br555      Br  0.77391455  0.37235773  0.23800515    -0.00600
Br556      Br  0.82692513  0.30956488  0.29578097    -0.00700
Br557      Br  0.62464375  0.24739670  0.23103914    -0.00700
Br558      Br  0.66319776  0.19858213  0.30074399    -0.00600
C559        C  0.04398910  0.24336359  0.83277387    -0.01800
C560        C  0.01870772  0.20368990  0.83748536     0.07900
C561        C  0.97006328  0.20744857  0.83906891    -0.01900
C562        C  0.94787707  0.25003679  0.83992926    -0.01900
C563        C  0.97366494  0.28965131  0.83872455     0.08000
C564        C  0.02154979  0.28594249  0.83360316    -0.02100
Br565      Br  0.05661050  0.33949759  0.82705055    -0.00600
Br566      Br  0.10957843  0.24050545  0.82643238    -0.00700
Br567      Br  0.88211066  0.25372650  0.84507279    -0.00700
Br568      Br  0.93261257  0.15429713  0.83925234    -0.00600
C569        C  0.90489991  0.97942785  0.89459737    -0.01800
C570        C  0.92840321  0.97335892  0.86336836     0.07900
C571        C  0.90967464  0.94436198  0.83853889    -0.01900
C572        C  0.86989267  0.91974456  0.84548394    -0.01900
C573        C  0.84807297  0.92403816  0.87735078     0.08000
C574        C  0.86534645  0.95457139  0.90156817    -0.02100
Br575      Br  0.83616149  0.96084369  0.94533273    -0.00600
Br576      Br  0.92613881  0.02097294  0.92903018    -0.00700
Br577      Br  0.84406858  0.88212869  0.81014063    -0.00700
Br578      Br  0.93609987  0.94113722  0.79376582    -0.00600
C579        C  0.14360384  0.84507726  0.87938903    -0.01800
C580        C  0.16793332  0.88578089  0.87985607     0.07900
C581        C  0.21469000  0.88498717  0.88997442    -0.01900
C582        C  0.23612419  0.84499718  0.90123237    -0.01900
C583        C  0.21223178  0.80423731  0.90005916     0.08000
C584        C  0.16605755  0.80439118  0.88845915    -0.02100
Br585      Br  0.13418252  0.74864254  0.88179256    -0.00600
Br586      Br  0.07918962  0.84432827  0.86716603    -0.00700
Br587      Br  0.29870813  0.84639969  0.91822260    -0.00700
Br588      Br  0.25147228  0.93762984  0.88558435    -0.00600
C589        C  0.08814610  0.00654364  0.71202400    -0.01800
C590        C  0.12443410  0.01730259  0.73472272     0.07900
C591        C  0.17005769  0.00953149  0.72426276    -0.01900
C592        C  0.17898222  0.98750963  0.69302168    -0.01900
C593        C  0.14264707  0.97474934  0.67101658     0.08000
C594        C  0.09721221  0.98528176  0.68051298    -0.02100
Br595      Br  0.04710587  0.96630158  0.65173090    -0.00600
Br596      Br  0.02549013  0.01914571  0.72483763    -0.00700
Br597      Br  0.24068801  0.96740064  0.68352393    -0.00700
Br598      Br  0.22050999  0.02359380  0.75456173    -0.00600
C599        C  0.94707500  0.75121937  0.15934064    -0.01800
C600        C  0.97505551  0.78840404  0.16640817     0.07900
C601        C  0.02242914  0.78119505  0.17315645    -0.01900
C602        C  0.04226924  0.73790229  0.16961164    -0.01900
C603        C  0.01467894  0.70123762  0.16060541     0.08000
C604        C  0.96683202  0.70784053  0.15649480    -0.02100
Br605      Br  0.92847328  0.65817267  0.14389101    -0.00600
Br606      Br  0.88212041  0.75969526  0.15090359    -0.00700
Br607      Br  0.10733820  0.72870463  0.17687274    -0.00700
Br608      Br  0.06011793  0.83039774  0.18830477    -0.00600
C609        C  0.71958946  0.90113878  0.04089180    -0.01800
C610        C  0.73307047  0.86647469  0.01828132     0.07900
C611        C  0.76977250  0.83716268  0.02821181    -0.01900
C612        C  0.79354443  0.84373533  0.05933555    -0.01900
C613        C  0.78150017  0.87958483  0.08117054     0.08000
C614        C  0.74373484  0.90765266  0.07200845    -0.02100
Br615      Br  0.72870033  0.95849396  0.10062145    -0.00600
Br616      Br  0.66911494  0.94079561  0.02883968    -0.00700
Br617      Br  0.84704921  0.80720877  0.07002649    -0.00700
Br618      Br  0.79254036  0.79144760  0.99725099    -0.00600
C619        C  0.81323158  0.12692830  0.15480605    -0.01800
C620        C  0.82773098  0.09936572  0.12767221     0.07900
C621        C  0.81791041  0.11249974  0.09370426    -0.01900
C622        C  0.79475115  0.15344236  0.08703087    -0.01900
C623        C  0.78118954  0.18141615  0.11413499     0.08000
C624        C  0.78986977  0.16770270  0.14807227    -0.02100
Br625      Br  0.76827118  0.20380047  0.18582792    -0.00600
Br626      Br  0.82351731  0.10824049  0.20136004    -0.00700
Br627      Br  0.78446478  0.17238730  0.04064035    -0.00700
Br628      Br  0.83860165  0.07623538  0.05569498    -0.00600
C629        C  0.82952507  0.98303111  0.27930491    -0.01800
C630        C  0.87569526  0.97566564  0.27055158     0.07900
C631        C  0.91044109  0.98718222  0.29450251    -0.01900
C632        C  0.89935541  0.01140339  0.32453193    -0.01900
C633        C  0.85342657  0.02369306  0.33103319     0.08000
C634        C  0.81858515  0.00580138  0.30966818    -0.02100
Br635      Br  0.75491118  0.01568847  0.32025185    -0.00600
Br636      Br  0.78087350  0.96852407  0.24744917    -0.00700
Br637      Br  0.94714624  0.03096948  0.35507759    -0.00700
Br638      Br  0.97353197  0.97128627  0.28549077    -0.00600
C639        C  0.00131461  0.02898094  0.03514247    -0.01800
C640        C  0.98532823  0.98437189  0.03433740     0.07900
C641        C  0.99339332  0.95651242  0.00606000    -0.01900
C642        C  0.01639134  0.97368110  0.97807026    -0.01900
C643        C  0.03207379  0.01836838  0.97880599     0.08000
C644        C  0.02502098  0.04587051  0.00733312    -0.02100
Br645      Br  0.04963966  0.10566298  0.00879487    -0.00600
Br646      Br  0.99304636  0.06636559  0.07499740    -0.00700
Br647      Br  0.02344386  0.93677224  0.93772855    -0.00700
Br648      Br  0.97121268  0.89564737  0.00490497    -0.00600
C649        C  0.51855404  0.23367638  0.67650693    -0.01800
C650        C  0.52873723  0.20988310  0.64631649     0.07900
C651        C  0.51302066  0.22768937  0.61480493    -0.01900
C652        C  0.48723490  0.26811857  0.61353683    -0.01900
C653        C  0.47701832  0.29203980  0.64366281     0.08000
C654        C  0.49283695  0.27459492  0.67519774    -0.02100
Br655      Br  0.48046274  0.30728124  0.71658629    -0.00600
Br656      Br  0.53791461  0.20920789  0.71973730    -0.00700
Br657      Br  0.46399279  0.28954779  0.57007819    -0.00700
Br658      Br  0.52715152  0.19706983  0.57255680    -0.00600
C659        C  0.35048319  0.98432071  0.62707116    -0.01800
C660        C  0.34920750  0.93725538  0.62237872     0.07900
C661        C  0.38973334  0.91124293  0.62717896    -0.01900
C662        C  0.43011292  0.93117759  0.63912627    -0.01900
C663        C  0.43186229  0.97832427  0.64378745     0.08000
C664        C  0.39140795  0.00465313  0.63830363    -0.02100
Br665      Br  0.39091989  0.06862906  0.64759831    -0.00600
Br666      Br  0.29718227  0.02171589  0.61721090    -0.00700
Br667      Br  0.48271679  0.89232470  0.64787401    -0.00700
Br668      Br  0.39183669  0.84838792  0.61368524    -0.00600
C669        C  0.76470425  0.07404993  0.56550202    -0.01800
C670        C  0.73838807  0.10733361  0.58270319     0.07900
C671        C  0.74178410  0.15230662  0.57218564    -0.01900
C672        C  0.76591611  0.16262183  0.54225695    -0.01900
C673        C  0.78426743  0.12774473  0.52141835     0.08000
C674        C  0.78606172  0.08362671  0.53439822    -0.02100
Br675      Br  0.81133151  0.03469496  0.50773267    -0.00600
Br676      Br  0.76780290  0.01379335  0.58312765    -0.00700
Br677      Br  0.77156950  0.22462745  0.52870294    -0.00700
Br678      Br  0.70892632  0.19894561  0.59628560    -0.00600
C679        C  0.64199400  0.85532719  0.60074443    -0.01800
C680        C  0.66700567  0.88940782  0.61726354     0.07900
C681        C  0.71524778  0.88619290  0.61877285    -0.01900
C682        C  0.73840352  0.84981592  0.60337105    -0.01900
C683        C  0.71328894  0.81347218  0.59019157     0.08000
C684        C  0.66501957  0.81714310  0.58776990    -0.02100
Br685      Br  0.63074855  0.77033201  0.56520697    -0.00600
Br686      Br  0.57653586  0.86123025  0.59466034    -0.00700
Br687      Br  0.80432801  0.85056211  0.60039311    -0.00700
Br688      Br  0.74938697  0.92988431  0.64465321    -0.00600
C689        C  0.67502955  0.01177017  0.77672387     0.07800
C690        C  0.63073541  0.02393884  0.76481501     0.07900
C691        C  0.59268379  0.01472383  0.78562944    -0.01900
C692        C  0.59836123  0.98988542  0.81607727    -0.01900
C693        C  0.64215357  0.97401999  0.82626738     0.08000
C694        C  0.68064264  0.98658705  0.80704849    -0.02100
Br695      Br  0.74082345  0.96415832  0.81983208    -0.00600
Br696      Br  0.72765854  0.02508825  0.74954627    -0.00700
Br697      Br  0.54593066  0.97526900  0.84299788    -0.00700
Br698      Br  0.53201580  0.03391161  0.77110879    -0.00600
C699        C  0.45943101  0.75318083  0.31825017    -0.01800
C700        C  0.48604803  0.79177007  0.32497134     0.07900
C701        C  0.53465430  0.78600672  0.32733500    -0.01900
C702        C  0.55529394  0.74257881  0.32738930    -0.01900
C703        C  0.52804971  0.70399567  0.32382777     0.08000
C704        C  0.48048129  0.71003113  0.31681070    -0.02100
Br705      Br  0.44354895  0.65911009  0.30370263    -0.00600
Br706      Br  0.39347080  0.75744456  0.31280392    -0.00700
Br707      Br  0.62099971  0.73678365  0.33381374    -0.00700
Br708      Br  0.57462997  0.83721794  0.32966438    -0.00600
C709        C  0.29521333  0.84813168  0.43409939    -0.01800
C710        C  0.28110222  0.88366867  0.41264660     0.07900
C711        C  0.24234760  0.90986293  0.42202559    -0.01900
C712        C  0.22047069  0.90325756  0.45367273    -0.01900
C713        C  0.23689753  0.86987852  0.47658112     0.08000
C714        C  0.27403947  0.84164131  0.46594453    -0.02100
Br715      Br  0.30107498  0.79763479  0.49656257    -0.00600
Br716      Br  0.34690025  0.81085736  0.42086499    -0.00700
Br717      Br  0.16866279  0.94088496  0.46563765    -0.00700
Br718      Br  0.22062078  0.95621301  0.39139743    -0.00600
C719        C  0.61138315  0.00913288  0.36215752    -0.01800
C720        C  0.56874255  0.03087908  0.35546703     0.07900
C721        C  0.56384464  0.07756330  0.36245423    -0.01900
C722        C  0.60211823  0.10238999  0.37305698    -0.01900
C723        C  0.64425869  0.08024663  0.37955581     0.08000
C724        C  0.64772335  0.03330433  0.37656266    -0.02100
Br725      Br  0.69994679  0.00189652  0.39628888    -0.00600
Br726      Br  0.62188142  0.94708504  0.34976818    -0.00700
Br727      Br  0.59683635  0.16680171  0.37889852    -0.00700
Br728      Br  0.50463201  0.10781098  0.36034072    -0.00600
C729        C  0.45659247  0.98705190  0.49465073    -0.01800
C730        C  0.48241151  0.96908808  0.46776591     0.07900
C731        C  0.53071428  0.97123777  0.46859556    -0.01900
C732        C  0.55280860  0.99455802  0.49495990    -0.01900
C733        C  0.52680518  0.01395125  0.52142757     0.08000
C734        C  0.47849908  0.01014283  0.52114074    -0.02100
Br735      Br  0.44118579  0.03542974  0.55678132    -0.00600
Br736      Br  0.39107176  0.97761235  0.49592220    -0.00700
Br737      Br  0.61856551  0.00259024  0.49325510    -0.00700
Br738      Br  0.56730273  0.94296724  0.43379909    -0.00600
C739        C  0.48572368  0.20431354  0.11363000    -0.01800
C740        C  0.45617878  0.21408107  0.08599453     0.07900
C741        C  0.47004323  0.24440983  0.06072582    -0.01900
C742        C  0.51301398  0.26541078  0.06342070    -0.01900
C743        C  0.54245402  0.25575145  0.09119170     0.08000
C744        C  0.52903058  0.22442231  0.11587748    -0.02100
Br745      Br  0.57012244  0.20874128  0.15283016    -0.00600
Br746      Br  0.46502945  0.16652080  0.15001289    -0.00700
Br747      Br  0.53035737  0.30961769  0.03043690    -0.00700
Br748      Br  0.42946991  0.25799226  0.02292473    -0.00600
C749        C  0.23913470  0.34538531  0.10406578    -0.01800
C750        C  0.21236700  0.31064999  0.08938081     0.07900
C751        C  0.16414536  0.31579149  0.08832950    -0.01900
C752        C  0.14283870  0.35270682  0.10433668    -0.01900
C753        C  0.16931775  0.38844487  0.11742442     0.08000
C754        C  0.21770765  0.38445805  0.11727810    -0.02100
Br755      Br  0.25568153  0.43224081  0.13481001    -0.00600
Br756      Br  0.30535318  0.34038612  0.10762165    -0.00700
Br757      Br  0.07717352  0.35140936  0.11107782    -0.00700
Br758      Br  0.12650353  0.27371196  0.06327533    -0.00600
C759        C  0.40770965  0.98406647  0.20017601    -0.01800
C760        C  0.37299661  0.97070233  0.22295373     0.07900
C761        C  0.32667445  0.97632319  0.21269037    -0.01900
C762        C  0.31557954  0.99969822  0.18238038    -0.01900
C763        C  0.35026406  0.01956190  0.16286495     0.08000
C764        C  0.39633527  0.00890425  0.17053647    -0.02100
Br765      Br  0.44373003  0.03235923  0.14218537    -0.00600
Br766      Br  0.47137285  0.97075614  0.21046117    -0.00700
Br767      Br  0.25221895  0.00763038  0.16860846    -0.00700
Br768      Br  0.27790176  0.95819842  0.24214434    -0.00600
C769        C  0.13499168  0.04307231  0.11123497    -0.01800
C770        C  0.14674708  0.07824912  0.13349273     0.07900
C771        C  0.12281752  0.08455375  0.16412849    -0.01900
C772        C  0.08614944  0.05650652  0.17199870    -0.01900
C773        C  0.07275396  0.02248756  0.14901905     0.08000
C774        C  0.09852077  0.01484656  0.11907342    -0.02100
Br775      Br  0.08436225  0.96694251  0.08747685    -0.00600
Br776      Br  0.16951853  0.03294597  0.07002915    -0.00700
Br777      Br  0.05578861  0.06355464  0.21512827    -0.00700
Br778      Br  0.13820591  0.13342105  0.19448166    -0.00600
C779        C  0.28579861  0.09531780  0.95769907    -0.01800
C780        C  0.27132903  0.13317711  0.97681877     0.07900
C781        C  0.24462692  0.16712004  0.95998197    -0.01900
C782        C  0.22436383  0.15841515  0.92790010    -0.01900
C783        C  0.23376417  0.11768027  0.91105891     0.08000
C784        C  0.26918907  0.08966176  0.92412214    -0.02100
Br785      Br  0.29341839  0.04278705  0.89570046    -0.00600
Br786      Br  0.32310103  0.04801108  0.97785038    -0.00700
Br787      Br  0.17963161  0.19976075  0.90872835    -0.00700
Br788      Br  0.23418707  0.22535060  0.98082130    -0.00600
C789        C  0.04469529  0.21872215  0.40046602    -0.01800
C790        C  0.04766564  0.26629430  0.40313510     0.07900
C791        C  0.00761311  0.29121269  0.41172218    -0.01900
C792        C  0.96557622  0.26927349  0.41616015    -0.01900
C793        C  0.96141113  0.22277351  0.40910870     0.08000
C794        C  0.00183222  0.19720601  0.40308968    -0.02100
Br795      Br  0.99929011  0.13270791  0.39841562    -0.00600
Br796      Br  0.09940924  0.18201089  0.39424709    -0.00700
Br797      Br  0.91426202  0.30288247  0.43480420    -0.00700
Br798      Br  0.00804267  0.35611916  0.41495937    -0.00600
C799        C  0.13605773  0.51605256  0.32540919    -0.01800
C800        C  0.11609417  0.47451827  0.33354381     0.07900
C801        C  0.08609948  0.45483345  0.30965284    -0.01900
C802        C  0.08155901  0.47268342  0.27653865    -0.01900
C803        C  0.10582161  0.51150560  0.26714675     0.08000
C804        C  0.13106988  0.53447205  0.29236939    -0.02100
Br805      Br  0.15934245  0.59054433  0.28142128    -0.00600
Br806      Br  0.17343143  0.54537620  0.35921479    -0.00700
Br807      Br  0.04631496  0.44037135  0.24296790    -0.00700
Br808      Br  0.05682299  0.39910190  0.32093289    -0.00600
C809        C  0.34809251  0.13400940  0.39362295    -0.01800
C810        C  0.34447752  0.11190148  0.36193269     0.07900
C811        C  0.31774916  0.13123781  0.33567837    -0.01900
C812        C  0.29178904  0.17077903  0.34187052    -0.01900
C813        C  0.29317137  0.19185037  0.37440827     0.08000
C814        C  0.32273039  0.17379961  0.39988277    -0.02100
Br815      Br  0.32787893  0.20188980  0.44413637    -0.00600
Br816      Br  0.38955618  0.11054931  0.42827584    -0.00700
Br817      Br  0.25602474  0.19601715  0.30465986    -0.00700
Br818      Br  0.31598367  0.10290142  0.29133484    -0.00600
C819        C  0.21761398  0.27238789  0.20609710    -0.01800
C820        C  0.26467141  0.26234683  0.20251916     0.07900
C821        C  0.29671869  0.27630117  0.22688233    -0.01900
C822        C  0.28139044  0.29774883  0.25641795    -0.01900
C823        C  0.23381968  0.30529276  0.26130860     0.08000
C824        C  0.20206957  0.29400124  0.23558397    -0.02100
Br825      Br  0.13755435  0.30780320  0.24073839    -0.00600
Br826      Br  0.17445681  0.25506069  0.17104341    -0.00700
Br827      Br  0.32583550  0.31148967  0.29139702    -0.00700
Br828      Br  0.36114794  0.26260139  0.22076856    -0.00600
C829        C  0.39713199  0.39861042  0.35650956    -0.01800
C830        C  0.36174185  0.42372615  0.37195089     0.07900
C831        C  0.36414256  0.47083645  0.37322733    -0.01900
C832        C  0.40130337  0.49308371  0.35852112    -0.01900
C833        C  0.43614059  0.46796730  0.34122845     0.08000
C834        C  0.43230547  0.42053110  0.33926567    -0.02100
Br835      Br  0.47317640  0.38462249  0.31142260    -0.00600
Br836      Br  0.39857463  0.33386505  0.35992050    -0.00700
Br837      Br  0.40295829  0.55777805  0.36377483    -0.00700
Br838      Br  0.31728347  0.50439681  0.39743781    -0.00600
C839        C  0.21355638  0.40528388  0.53127978    -0.01800
C840        C  0.22371964  0.36441004  0.51419592     0.07900
C841        C  0.24753322  0.33002183  0.53263897    -0.01900
C842        C  0.26898140  0.33959083  0.56424928    -0.01900
C843        C  0.26318383  0.38219777  0.57933960     0.08000
C844        C  0.23141673  0.41293986  0.56433640    -0.02100
Br845      Br  0.21712867  0.46848000  0.58790473    -0.00600
Br846      Br  0.18077965  0.45371799  0.50857725    -0.00700
Br847      Br  0.31141221  0.29669835  0.58438740    -0.00700
Br848      Br  0.25162132  0.26963602  0.51463652    -0.00600
loop_ 
_geom_bond_atom_site_label_1 
_geom_bond_atom_site_label_2 
_geom_bond_distance 
_geom_bond_site_symmetry_2 
_ccdc_geom_bond_type 
Zn1           O5   1.953       .  S
Zn1           O6   2.020       .  S
Zn1          O10   2.010       .  S
Zn1          O17   2.005       .  S
Zn2           O5   1.955       .  S
Zn2           O7   2.102       .  S
Zn2           O9   2.063       .  S
Zn2          O13   2.140       .  S
Zn3           O5   1.938       .  S
Zn3           O8   2.026       .  S
Zn3          O11   2.017       .  S
Zn3          O14   2.042       .  S
Zn4           O5   1.909       .  S
Zn4          O12   1.958       .  S
Zn4          O15   1.913       .  S
Zn4          O16   1.951       .  S
O6           C18   1.274       .  A
O7           C19   1.289       .  A
O8           C20   1.275       .  A
O9           C18   1.279       .  A
O10          C20   1.272       .  A
O11          C19   1.279       .  A
O12          C21   1.264       .  A
O13          C22   1.289       .  A
O14          C21   1.272       .  A
O15          C22   1.261       .  A
O16          C23   1.264       .  A
O17          C23   1.272       .  A
C18         C790   1.504       .  S
C19         C840   1.506       .  S
C20         C813   1.491       .  S
C21         C830   1.474       .  S
C22         C800   1.482       .  S
C23         C823   1.463       .  S
Zn24         O28   1.900       .  S
Zn24         O29   1.993       .  S
Zn24         O33   1.970       .  S
Zn24         O40   2.002       .  S
Zn25         O28   1.897       .  S
Zn25         O30   1.963       .  S
Zn25         O32   1.978       .  S
Zn25         O36   1.963       .  S
Zn26         O28   1.920       .  S
Zn26         O31   2.106       .  S
Zn26         O34   2.131       .  S
Zn26         O37   2.074       .  S
Zn27         O28   1.926       .  S
Zn27         O35   1.979       .  S
Zn27         O38   1.993       .  S
Zn27         O39   2.001       .  S
O29          C41   1.270       .  A
O30          C42   1.272       .  A
O31          C43   1.289       .  A
O32          C41   1.266       .  A
O33          C43   1.273       .  A
O34          C42   1.291       .  A
O35          C44   1.270       .  A
O36          C45   1.268       .  A
O37          C44   1.282       .  A
O38          C45   1.269       .  A
O39          C46   1.268       .  A
O40          C46   1.270       .  A
C41         C770   1.467       .  S
C42         C763   1.491       .  S
C43         C780   1.499   1_554  S
C44         C740   1.477       .  S
C45         C820   1.449       .  S
C46         C750   1.487       .  S
Zn47         O51   1.941   1_545  S
Zn47         O52   2.038       .  S
Zn47         O56   1.987   1_545  S
Zn47         O63   2.014       .  S
Zn48         O51   1.906       .  S
Zn48         O53   1.955       .  S
Zn48         O55   1.973   1_565  S
Zn48         O59   1.967       .  S
Zn49         O51   1.947       .  S
Zn49         O54   2.127       .  S
Zn49         O57   2.161       .  S
Zn49         O60   2.096       .  S
Zn50         O51   1.936       .  S
Zn50         O58   1.988       .  S
Zn50         O61   1.994       .  S
Zn50         O62   1.991       .  S
O52          C64   1.273       .  A
O53          C65   1.267       .  A
O54          C66   1.293       .  A
O55          C64   1.266       .  A
O56          C66   1.275       .  A
O57          C65   1.294       .  A
O58          C67   1.270       .  A
O59          C68   1.267       .  A
O60          C67   1.283       .  A
O61          C68   1.268       .  A
O62          C69   1.270   1_565  A
O63          C69   1.273       .  A
C64         C810   1.476       .  S
C65         C710   1.497       .  S
C66         C760   1.500       .  S
C67         C700   1.511       .  S
C68         C730   1.463       .  S
C69         C720   1.481       .  S
Zn70         O74   1.933       .  S
Zn70         O75   1.975       .  S
Zn70         O79   2.004       .  S
Zn70         O86   1.956       .  S
Zn71         O74   1.945   1_565  S
Zn71         O76   2.066       .  S
Zn71         O78   2.024       .  S
Zn71         O82   1.986   1_565  S
Zn72         O74   1.892       .  S
Zn72         O77   1.961       .  S
Zn72         O80   1.948   1_545  S
Zn72         O83   1.942       .  S
Zn73         O74   1.968       .  S
Zn73         O81   2.151       .  S
Zn73         O84   2.144       .  S
Zn73         O85   2.126       .  S
O75          C87   1.266       .  A
O76          C88   1.276       .  A
O77          C89   1.264       .  A
O78          C87   1.273   1_565  A
O79          C89   1.268       .  A
O80          C88   1.263       .  A
O81          C90   1.291       .  A
O82          C91   1.274       .  A
O83          C90   1.268       .  A
O84          C91   1.294       .  A
O85          C92   1.287       .  A
O86          C92   1.268       .  A
C87         C663   1.488   1_545  S
C88         C680   1.474       .  S
C89         C733   1.468       .  S
C90         C670   1.495       .  S
C91         C690   1.498       .  S
C92         C650   1.494       .  S
Zn93         O97   1.878       .  S
Zn93         O98   1.961   1_565  S
Zn93        O102   1.927       .  S
Zn93        O109   1.950       .  S
Zn94         O97   1.918   1_545  S
Zn94         O99   2.003   1_545  S
Zn94        O101   2.039       .  S
Zn94        O105   2.015       .  S
Zn95         O97   1.925       .  S
Zn95        O100   2.158       .  S
Zn95        O103   2.108       .  S
Zn95        O106   2.067       .  S
Zn96         O97   1.921       .  S
Zn96        O104   1.975       .  S
Zn96        O107   1.990   1_655  S
Zn96        O108   2.003       .  S
O98         C110   1.264       .  A
O99         C111   1.277       .  A
O100        C112   1.292       .  A
O101        C110   1.274       .  A
O102        C112   1.264       .  A
O103        C111   1.292       .  A
O104        C113   1.270       .  A
O105        C114   1.274   1_645  A
O106        C113   1.281       .  A
O107        C114   1.269       .  A
O108        C115   1.272       .  A
O109        C115   1.266       .  A
C110        C620   1.476       .  S
C111        C630   1.495       .  S
C112        C613   1.489       .  S
C113        C600   1.484       .  S
C114        C773   1.479   1_565  S
C115        C640   1.457       .  S
Zn116       O120   1.948       .  S
Zn116       O121   1.987       .  S
Zn116       O125   2.000       .  S
Zn116       O132   2.001   1_455  S
Zn117       O120   1.969       .  S
Zn117       O122   2.128       .  S
Zn117       O124   2.096       .  S
Zn117       O128   2.097       .  S
Zn118       O120   1.918       .  S
Zn118       O123   1.949       .  S
Zn118       O126   1.947       .  S
Zn118       O129   1.963   1_545  S
Zn119       O120   1.950   1_565  S
Zn119       O127   2.056       .  S
Zn119       O130   2.019   1_565  S
Zn119       O131   2.057       .  S
O121        C133   1.270       .  A
O122        C134   1.288       .  A
O123        C135   1.263       .  A
O124        C133   1.282       .  A
O125        C135   1.269       .  A
O126        C134   1.267       .  A
O127        C136   1.275       .  A
O128        C137   1.288       .  A
O129        C136   1.265       .  A
O130        C137   1.279       .  A
O131        C138   1.279   1_455  A
O132        C138   1.270   1_545  A
C133        C560   1.504       .  S
C134        C783   1.486       .  S
C135        C643   1.454       .  S
C136        C580   1.490       .  S
C137        C590   1.497       .  S
C138        C570   1.495       .  S
Zn139       O143   1.900       .  S
Zn139       O144   1.949       .  S
Zn139       O148   1.983       .  S
Zn139       O155   1.990       .  S
Zn140       O143   1.943       .  S
Zn140       O145   2.100       .  S
Zn140       O147   2.154       .  S
Zn140       O151   2.119       .  S
Zn141       O143   1.922       .  S
Zn141       O146   2.002       .  S
Zn141       O149   1.998       .  S
Zn141       O152   2.008       .  S
Zn142       O143   1.916       .  S
Zn142       O150   2.011       .  S
Zn142       O153   1.971       .  S
Zn142       O154   2.010       .  S
O144        C156   1.269       .  A
O145        C157   1.284       .  A
O146        C158   1.271       .  A
O147        C156   1.293       .  A
O148        C158   1.269       .  A
O149        C157   1.275       .  A
O150        C159   1.271       .  A
O151        C160   1.292       .  A
O152        C159   1.269       .  A
O153        C160   1.274       .  A
O154        C161   1.269       .  A
O155        C161   1.268       .  A
C156        C633   1.498       .  S
C157        C793   1.503       .  S
C158        C550   1.481       .  S
C159        C543   1.494       .  S
C160        C673   1.497       .  S
C161        C723   1.467       .  S
Zn162       O166   1.939       .  S
Zn162       O167   2.041       .  S
Zn162       O171   2.044       .  S
Zn162       O178   2.033       .  S
Zn163       O166   1.947       .  S
Zn163       O168   2.030       .  S
Zn163       O170   2.026       .  S
Zn163       O174   1.989       .  S
Zn164       O166   1.912       .  S
Zn164       O169   1.968       .  S
Zn164       O172   1.939       .  S
Zn164       O175   1.940       .  S
Zn165       O166   1.967       .  S
Zn165       O173   2.035       .  S
Zn165       O176   2.091       .  S
Zn165       O177   2.077       .  S
O167        C179   1.277       .  A
O168        C180   1.271       .  A
O169        C181   1.267       .  A
O170        C179   1.277       .  A
O171        C181   1.276       .  A
O172        C180   1.263       .  A
O173        C182   1.267       .  A
O174        C183   1.273       .  A
O175        C182   1.264       .  A
O176        C183   1.285       .  A
O177        C184   1.286       .  A
O178        C184   1.279       .  A
C179        C743   1.481       .  S
C180        C553   1.475       .  S
C181        C623   1.476       .  S
C182        C520   1.489       .  S
C183        C513   1.494       .  S
C184        C530   1.495   1_554  S
Zn185       O189   1.955       .  S
Zn185       O190   2.083       .  S
Zn185       O194   2.090       .  S
Zn185       O201   2.018       .  S
Zn186       O189   1.937       .  S
Zn186       O191   2.052       .  S
Zn186       O193   2.022       .  S
Zn186       O197   2.044       .  S
Zn187       O189   1.942       .  S
Zn187       O192   2.005       .  S
Zn187       O195   2.035       .  S
Zn187       O198   2.045       .  S
Zn188       O189   1.926       .  S
Zn188       O196   1.957       .  S
Zn188       O199   1.948       .  S
Zn188       O200   1.964       .  S
O190        C202   1.285       .  A
O191        C203   1.279       .  A
O192        C204   1.275       .  A
O193        C202   1.277       .  A
O194        C204   1.288       .  A
O195        C203   1.276       .  A
O196        C205   1.267       .  A
O197        C206   1.275       .  A
O198        C205   1.276       .  A
O199        C206   1.264       .  A
O200        C207   1.264       .  A
O201        C207   1.270       .  A
C202        C470   1.494       .  S
C203        C463   1.497       .  S
C204        C500   1.500       .  S
C205        C683   1.476       .  S
C206        C480   1.462       .  S
C207        C490   1.468       .  S
Zn208       O212   1.931       .  S
Zn208       O213   2.031       .  S
Zn208       O217   2.043       .  S
Zn208       O224   2.039       .  S
Zn209       O212   1.945       .  S
Zn209       O214   2.102       .  S
Zn209       O216   2.086       .  S
Zn209       O220   2.039       .  S
Zn210       O212   1.948       .  S
Zn210       O215   2.056       .  S
Zn210       O218   2.030       .  S
Zn210       O221   2.048       .  S
Zn211       O212   1.920       .  S
Zn211       O219   1.955       .  S
Zn211       O222   1.988       .  S
Zn211       O223   1.958       .  S
O213        C225   1.279       .  A
O214        C226   1.290       .  A
O215        C227   1.279       .  A
O216        C225   1.287       .  A
O217        C227   1.279       .  A
O218        C226   1.280       .  A
O219        C228   1.268       .  A
O220        C229   1.272       .  A
O221        C228   1.275       .  A
O222        C229   1.266       .  A
O223        C230   1.263       .  A
O224        C230   1.273       .  A
C225        C693   1.496       .  S
C226        C610   1.504   1_556  S
C227        C443   1.498       .  S
C228        C450   1.476       .  S
C229        C573   1.487       .  S
C230        C483   1.464       .  S
Zn231       O235   1.926       .  S
Zn231       O236   2.027       .  S
Zn231       O240   2.047       .  S
Zn231       O247   2.015       .  S
Zn232       O235   1.945       .  S
Zn232       O237   2.003       .  S
Zn232       O239   2.001       .  S
Zn232       O243   1.984       .  S
Zn233       O235   1.917       .  S
Zn233       O238   1.971       .  S
Zn233       O241   1.981       .  S
Zn233       O244   1.944       .  S
Zn234       O235   1.957       .  S
Zn234       O242   2.126       .  S
Zn234       O245   2.093       .  S
Zn234       O246   2.110       .  S
O236        C248   1.274       .  A
O237        C249   1.269       .  A
O238        C250   1.264       .  A
O239        C248   1.268       .  A
O240        C250   1.274       .  A
O241        C249   1.267       .  A
O242        C251   1.290       .  A
O243        C252   1.270       .  A
O244        C251   1.268       .  A
O245        C252   1.282       .  A
O246        C253   1.289       .  A
O247        C253   1.279       .  A
C248        C833   1.497       .  S
C249        C430   1.459       .  S
C250        C540   1.471       .  S
C251        C503   1.482       .  S
C252        C703   1.503       .  S
C253        C510   1.499       .  S
Zn254       O258   1.933       .  S
Zn254       O259   2.015       .  S
Zn254       O263   2.048       .  S
Zn254       O270   2.027       .  S
Zn255       O258   1.953       .  S
Zn255       O260   2.146       .  S
Zn255       O262   2.104       .  S
Zn255       O266   2.088       .  S
Zn256       O258   1.897       .  S
Zn256       O261   1.966       .  S
Zn256       O264   1.912       .  S
Zn256       O267   1.960       .  S
Zn257       O258   1.920       .  S
Zn257       O265   2.016       .  S
Zn257       O268   1.992       .  S
Zn257       O269   1.983       .  S
O259        C271   1.279       .  A
O260        C272   1.290       .  A
O261        C273   1.263       .  A
O262        C271   1.291       .  A
O263        C273   1.274       .  A
O264        C272   1.262       .  A
O265        C274   1.275       .  A
O266        C275   1.283       .  A
O267        C274   1.265       .  A
O268        C275   1.272       .  A
O269        C276   1.268       .  A
O270        C276   1.274       .  A
C271        C420   1.499       .  S
C272        C843   1.489       .  S
C273        C410   1.483       .  S
C274        C433   1.462       .  S
C275        C653   1.493       .  S
C276        C493   1.482       .  S
Zn277       O281   1.964       .  S
Zn277       O282   2.049       .  S
Zn277       O286   2.119       .  S
Zn277       O293   2.117       .  S
Zn278       O281   1.917       .  S
Zn278       O283   1.960       .  S
Zn278       O285   1.953       .  S
Zn278       O289   1.987       .  S
Zn279       O281   1.933       .  S
Zn279       O284   1.987       .  S
Zn279       O287   2.030       .  S
Zn279       O290   2.008       .  S
Zn280       O281   1.928       .  S
Zn280       O288   2.067       .  S
Zn280       O291   2.055       .  S
Zn280       O292   2.048       .  S
O282        C294   1.272       .  A
O283        C295   1.263       .  A
O284        C296   1.273       .  A
O285        C294   1.264       .  A
O286        C296   1.291       .  A
O287        C295   1.271       .  A
O288        C297   1.280       .  A
O289        C298   1.267       .  A
O290        C297   1.273       .  A
O291        C298   1.278       .  A
O292        C299   1.282       .  A
O293        C299   1.292       .  A
C294        C660   1.482       .  S
C295        C400   1.464       .  S
C296        C593   1.493       .  S
C297        C460   1.484       .  S
C298        C413   1.488       .  S
C299        C713   1.516       .  S
Zn300       O304   1.901       .  S
Zn300       O305   1.974       .  S
Zn300       O309   1.957       .  S
Zn300       O316   1.992       .  S
Zn301       O304   1.937       .  S
Zn301       O306   1.992       .  S
Zn301       O308   2.025       .  S
Zn301       O312   2.027       .  S
Zn302       O304   1.955       .  S
Zn302       O307   2.144       .  S
Zn302       O310   2.135       .  S
Zn302       O313   2.093       .  S
Zn303       O304   1.926       .  S
Zn303       O311   2.009       .  S
Zn303       O314   1.989       .  S
Zn303       O315   2.031       .  S
O305        C317   1.268       .  A
O306        C318   1.275       .  A
O307        C319   1.291       .  A
O308        C317   1.271       .  A
O309        C319   1.269       .  A
O310        C318   1.292       .  A
O311        C320   1.275       .  A
O312        C321   1.275       .  A
O313        C320   1.284       .  A
O314        C321   1.271       .  A
O315        C322   1.275       .  A
O316        C322   1.269       .  A
C317        C380   1.475       .  S
C318        C390   1.501   1_556  S
C319        C423   1.501       .  S
C320        C440   1.488       .  S
C321        C583   1.483       .  S
C322        C403   1.478       .  S
Zn323       O327   1.891       .  S
Zn323       O328   1.973       .  S
Zn323       O332   1.966       .  S
Zn323       O339   1.948       .  S
Zn324       O327   1.914       .  S
Zn324       O329   2.034       .  S
Zn324       O331   2.029       .  S
Zn324       O335   1.988       .  S
Zn325       O327   1.939       .  S
Zn325       O330   2.023       .  S
Zn325       O333   1.984   1_655  S
Zn325       O336   2.015       .  S
Zn326       O327   1.925       .  S
Zn326       O334   2.083       .  S
Zn326       O337   2.126       .  S
Zn326       O338   2.134       .  S
O328        C340   1.266       .  A
O329        C341   1.277   1_655  A
O330        C342   1.273       .  A
O331        C340   1.272       .  A
O332        C342   1.264       .  A
O333        C341   1.269       .  A
O334        C343   1.283       .  A
O335        C344   1.276       .  A
O336        C343   1.275       .  A
O337        C344   1.293       .  A
O338        C345   1.291       .  A
O339        C345   1.270       .  A
C340        C453   1.486       .  S
C341        C383   1.478       .  S
C342        C370   1.488       .  S
C343        C563   1.497       .  S
C344        C473   1.501       .  S
C345        C533   1.483       .  S
Zn346       O350   1.957       .  S
Zn346       O351   2.006       .  S
Zn346       O355   2.038       .  S
Zn346       O362   2.040       .  S
Zn347       O350   1.964       .  S
Zn347       O352   2.107       .  S
Zn347       O354   2.108       .  S
Zn347       O358   2.054       .  S
Zn348       O350   1.938       .  S
Zn348       O353   2.025       .  S
Zn348       O356   2.016       .  S
Zn348       O359   2.031   1_455  S
Zn349       O350   1.909       .  S
Zn349       O357   1.958       .  S
Zn349       O360   1.949       .  S
Zn349       O361   1.923       .  S
O351        C363   1.275       .  A
O352        C364   1.290       .  A
O353        C365   1.275       .  A
O354        C363   1.288       .  A
O355        C365   1.278       .  A
O356        C364   1.277       .  A
O357        C366   1.266   1_455  A
O358        C367   1.273       .  A
O359        C366   1.274       .  A
O360        C367   1.262       .  A
O361        C368   1.262       .  A
O362        C368   1.272       .  A
C363        C393   1.496       .  S
C364        C803   1.497       .  S
C365        C603   1.482       .  S
C366        C523   1.465       .  S
C367        C753   1.487       .  S
C368        C373   1.464       .  S
C369        C370   1.421   1_455  A
C369        C374   1.402       .  A
C369       Br376   1.935       .  S
C370        C371   1.426       .  A
C371        C372   1.406   1_556  A
C371       Br378   1.935       .  S
C372        C373   1.399   1_655  A
C372       Br377   1.930       .  S
C373        C374   1.405   1_554  A
C374       Br375   1.934   1_556  S
C379        C380   1.408       .  A
C379        C384   1.406       .  A
C379       Br386   1.928       .  S
C380        C381   1.406       .  A
C381        C382   1.402       .  A
C381       Br388   1.927       .  S
C382        C383   1.410       .  A
C382       Br387   1.924       .  S
C383        C384   1.413       .  A
C384       Br385   1.925   1_455  S
C389        C390   1.417       .  A
C389        C394   1.416       .  A
C389       Br396   1.928       .  S
C390        C391   1.413       .  A
C391        C392   1.418       .  A
C391       Br398   1.931   1_554  S
C392        C393   1.417       .  A
C392       Br397   1.928       .  S
C393        C394   1.408       .  A
C394       Br395   1.926       .  S
C399        C400   1.408       .  A
C399        C404   1.408       .  A
C399       Br406   1.932       .  S
C400        C401   1.404       .  A
C401        C402   1.403       .  A
C401       Br408   1.934       .  S
C402        C403   1.413       .  A
C402       Br407   1.926       .  S
C403        C404   1.414       .  A
C404       Br405   1.932       .  S
C409        C410   1.407       .  A
C409        C414   1.407       .  A
C409       Br416   1.937       .  S
C410        C411   1.419       .  A
C411        C412   1.409       .  A
C411       Br418   1.936       .  S
C412        C413   1.410       .  A
C412       Br417   1.934       .  S
C413        C414   1.423       .  A
C414       Br415   1.932       .  S
C419        C420   1.408       .  A
C419        C424   1.411       .  A
C419       Br426   1.933       .  S
C420        C421   1.419       .  A
C421        C422   1.419       .  A
C421       Br428   1.931       .  S
C422        C423   1.412       .  A
C422       Br427   1.927       .  S
C423        C424   1.421       .  A
C424       Br425   1.928       .  S
C429        C430   1.408       .  A
C429        C434   1.400       .  A
C429       Br436   1.921       .  S
C430        C431   1.402       .  A
C431        C432   1.403       .  A
C431       Br438   1.929       .  S
C432        C433   1.414       .  A
C432       Br437   1.933       .  S
C433        C434   1.403       .  A
C434       Br435   1.932       .  S
C439        C440   1.411       .  A
C439        C444   1.419       .  A
C439       Br446   1.928       .  S
C440        C441   1.408       .  A
C441        C442   1.410       .  A
C441       Br448   1.931       .  S
C442        C443   1.416       .  A
C442       Br447   1.933       .  S
C443        C444   1.416       .  A
C444       Br445   1.928       .  S
C449        C450   1.408       .  A
C449        C454   1.401       .  A
C449       Br456   1.939       .  S
C450        C451   1.411       .  A
C451        C452   1.412       .  A
C451       Br458   1.932       .  S
C452        C453   1.418       .  A
C452       Br457   1.934       .  S
C453        C454   1.416       .  A
C454       Br455   1.929       .  S
C459        C460   1.407       .  A
C459        C464   1.413   1_455  A
C459       Br466   1.930       .  S
C460        C461   1.410       .  A
C461        C462   1.413   1_455  A
C461       Br468   1.931       .  S
C462        C463   1.415       .  A
C462       Br467   1.929       .  S
C463        C464   1.419       .  A
C464       Br465   1.928       .  S
C469        C470   1.415       .  A
C469        C474   1.418       .  A
C469       Br476   1.927       .  S
C470        C471   1.406       .  A
C471        C472   1.413       .  A
C471       Br478   1.927       .  S
C472        C473   1.420       .  A
C472       Br477   1.932       .  S
C473        C474   1.414       .  A
C474       Br475   1.931       .  S
C479        C480   1.405       .  A
C479        C484   1.404       .  A
C479       Br486   1.931       .  S
C480        C481   1.406       .  A
C481        C482   1.402       .  A
C481       Br488   1.920       .  S
C482        C483   1.407       .  A
C482       Br487   1.933       .  S
C483        C484   1.411       .  A
C484       Br485   1.926       .  S
C489        C490   1.412       .  A
C489        C494   1.407       .  A
C489       Br496   1.934       .  S
C490        C491   1.403       .  A
C491        C492   1.404       .  A
C491       Br498   1.937       .  S
C492        C493   1.422       .  A
C492       Br497   1.933       .  S
C493        C494   1.412       .  A
C494       Br495   1.932       .  S
C499        C500   1.424       .  A
C499        C504   1.412       .  A
C499       Br506   1.935       .  S
C500        C501   1.413       .  A
C501        C502   1.415       .  A
C501       Br508   1.929       .  S
C502        C503   1.412       .  A
C502       Br507   1.926       .  S
C503        C504   1.405       .  A
C504       Br505   1.932       .  S
C509        C510   1.415       .  A
C509        C514   1.411       .  A
C509       Br516   1.930       .  S
C510        C511   1.413       .  A
C511        C512   1.419       .  A
C511       Br518   1.929       .  S
C512        C513   1.417       .  A
C512       Br517   1.927       .  S
C513        C514   1.409       .  A
C514       Br515   1.928       .  S
C519        C520   1.421       .  A
C519        C524   1.399       .  A
C519       Br526   1.940       .  S
C520        C521   1.422       .  A
C521        C522   1.408       .  A
C521       Br528   1.935       .  S
C522        C523   1.407       .  A
C522       Br527   1.930       .  S
C523        C524   1.401       .  A
C524       Br525   1.930       .  S
C529        C530   1.411       .  A
C529        C534   1.416       .  A
C529       Br536   1.926       .  S
C530        C531   1.417       .  A
C531        C532   1.412       .  A
C531       Br538   1.932   1_556  S
C532        C533   1.408       .  A
C532       Br537   1.931       .  S
C533        C534   1.410       .  A
C534       Br535   1.924       .  S
C539        C540   1.406       .  A
C539        C544   1.407       .  A
C539       Br546   1.929       .  S
C540        C541   1.403       .  A
C541        C542   1.409       .  A
C541       Br548   1.931       .  S
C542        C543   1.423       .  A
C542       Br547   1.932       .  S
C543        C544   1.418       .  A
C544       Br545   1.935       .  S
C549        C550   1.413       .  A
C549        C554   1.402       .  A
C549       Br556   1.933       .  S
C550        C551   1.420       .  A
C551        C552   1.406       .  A
C551       Br558   1.935       .  S
C552        C553   1.407       .  A
C552       Br557   1.929       .  S
C553        C554   1.411       .  A
C554       Br555   1.936       .  S
C559        C560   1.415       .  A
C559        C564   1.416       .  A
C559       Br566   1.932       .  S
C560        C561   1.423   1_455  A
C561        C562   1.413       .  A
C561       Br568   1.936       .  S
C562        C563   1.409       .  A
C562       Br567   1.932       .  S
C563        C564   1.415   1_655  A
C564       Br565   1.926       .  S
C569        C570   1.423       .  A
C569        C574   1.410       .  A
C569       Br576   1.933   1_565  S
C570        C571   1.412       .  A
C571        C572   1.412       .  A
C571       Br578   1.933       .  S
C572        C573   1.417       .  A
C572       Br577   1.935       .  S
C573        C574   1.408       .  A
C574       Br575   1.937       .  S
C579        C580   1.413       .  A
C579        C584   1.411       .  A
C579       Br586   1.933       .  S
C580        C581   1.415       .  A
C581        C582   1.405       .  A
C581       Br588   1.922       .  S
C582        C583   1.408       .  A
C582       Br587   1.936       .  S
C583        C584   1.416       .  A
C584       Br585   1.929       .  S
C589        C590   1.416       .  A
C589        C594   1.415   1_545  A
C589       Br596   1.931       .  S
C590        C591   1.412       .  A
C591        C592   1.415   1_545  A
C591       Br598   1.932       .  S
C592        C593   1.416       .  A
C592       Br597   1.927       .  S
C593        C594   1.410       .  A
C594       Br595   1.928       .  S
C599        C600   1.410       .  A
C599        C604   1.409       .  A
C599       Br606   1.931       .  S
C600        C601   1.416   1_655  A
C601        C602   1.410       .  A
C601       Br608   1.932       .  S
C602        C603   1.407       .  A
C602       Br607   1.930       .  S
C603        C604   1.413   1_455  A
C604       Br605   1.927       .  S
C609        C610   1.413       .  A
C609        C614   1.419       .  A
C609       Br616   1.926       .  S
C610        C611   1.421       .  A
C611        C612   1.414       .  A
C611       Br618   1.937   1_554  S
C612        C613   1.409       .  A
C612       Br617   1.929       .  S
C613        C614   1.415       .  A
C614       Br615   1.929       .  S
C619        C620   1.408       .  A
C619        C624   1.405       .  A
C619       Br626   1.934       .  S
C620        C621   1.418       .  A
C621        C622   1.406       .  A
C621       Br628   1.937       .  S
C622        C623   1.407       .  A
C622       Br627   1.931       .  S
C623        C624   1.416       .  A
C624       Br625   1.935       .  S
C629        C630   1.407       .  A
C629        C634   1.408   1_565  A
C629       Br636   1.934       .  S
C630        C631   1.420       .  A
C631        C632   1.419   1_565  A
C631       Br638   1.928       .  S
C632        C633   1.408       .  A
C632       Br637   1.925       .  S
C633        C634   1.420       .  A
C634       Br635   1.925       .  S
C639        C640   1.414   1_445  A
C639        C644   1.400       .  A
C639       Br646   1.934   1_455  S
C640        C641   1.404       .  A
C641        C642   1.399   1_654  A
C641       Br648   1.932       .  S
C642        C643   1.413   1_565  A
C642       Br647   1.937       .  S
C643        C644   1.401   1_556  A
C644       Br645   1.929       .  S
C649        C650   1.412       .  A
C649        C654   1.419       .  A
C649       Br656   1.927       .  S
C650        C651   1.418       .  A
C651        C652   1.408       .  A
C651       Br658   1.938       .  S
C652        C653   1.412       .  A
C652       Br657   1.938       .  S
C653        C654   1.416       .  A
C654       Br655   1.928       .  S
C659        C660   1.412       .  A
C659        C664   1.412   1_565  A
C659       Br666   1.932   1_565  S
C660        C661   1.413       .  A
C661        C662   1.402       .  A
C661       Br668   1.942       .  S
C662        C663   1.415       .  A
C662       Br667   1.933       .  S
C663        C664   1.419   1_565  A
C664       Br665   1.936       .  S
C669        C670   1.417       .  A
C669        C674   1.412       .  A
C669       Br676   1.924       .  S
C670        C671   1.407       .  A
C671        C672   1.416       .  A
C671       Br678   1.926       .  S
C672        C673   1.421       .  A
C672       Br677   1.932       .  S
C673        C674   1.410       .  A
C674       Br675   1.932       .  S
C679        C680   1.410       .  A
C679        C684   1.407       .  A
C679       Br686   1.925       .  S
C680        C681   1.409       .  A
C681        C682   1.405       .  A
C681       Br688   1.930       .  S
C682        C683   1.409       .  A
C682       Br687   1.927       .  S
C683        C684   1.412       .  A
C684       Br685   1.934       .  S
C689        C690   1.410       .  A
C689        C694   1.417   1_545  A
C689       Br696   1.928       .  S
C690        C691   1.418       .  A
C691        C692   1.416   1_545  A
C691       Br698   1.930       .  S
C692        C693   1.408       .  A
C692       Br697   1.927       .  S
C693        C694   1.417       .  A
C694       Br695   1.928       .  S
C699        C700   1.418       .  A
C699        C704   1.414       .  A
C699       Br706   1.934       .  S
C700        C701   1.426       .  A
C701        C702   1.416       .  A
C701       Br708   1.934       .  S
C702        C703   1.412       .  A
C702       Br707   1.934       .  S
C703        C704   1.419       .  A
C704       Br705   1.937       .  S
C709        C710   1.408       .  A
C709        C714   1.419       .  A
C709       Br716   1.931       .  S
C710        C711   1.414       .  A
C711        C712   1.422       .  A
C711       Br718   1.928       .  S
C712        C713   1.417       .  A
C712       Br717   1.927       .  S
C713        C714   1.425       .  A
C714       Br715   1.934       .  S
C719        C720   1.414       .  A
C719        C724   1.403       .  A
C719       Br726   1.927   1_545  S
C720        C721   1.420       .  A
C721        C722   1.406       .  A
C721       Br728   1.934       .  S
C722        C723   1.405       .  A
C722       Br727   1.932       .  S
C723        C724   1.403       .  A
C724       Br725   1.929       .  S
C729        C730   1.404       .  A
C729        C734   1.399   1_565  A
C729       Br736   1.936       .  S
C730        C731   1.411       .  A
C731        C732   1.402       .  A
C731       Br738   1.928       .  S
C732        C733   1.411   1_565  A
C732       Br737   1.938   1_565  S
C733        C734   1.415       .  A
C734       Br735   1.928       .  S
C739        C740   1.407       .  A
C739        C744   1.408       .  A
C739       Br746   1.932       .  S
C740        C741   1.412       .  A
C741        C742   1.412       .  A
C741       Br748   1.929       .  S
C742        C743   1.409       .  A
C742       Br747   1.928       .  S
C743        C744   1.412       .  A
C744       Br745   1.926       .  S
C749        C750   1.422       .  A
C749        C754   1.411       .  A
C749       Br756   1.937       .  S
C750        C751   1.412       .  A
C751        C752   1.403       .  A
C751       Br758   1.937       .  S
C752        C753   1.416       .  A
C752       Br757   1.937       .  S
C753        C754   1.414       .  A
C754       Br755   1.936       .  S
C759        C760   1.422       .  A
C759        C764   1.416   1_565  A
C759       Br766   1.930       .  S
C760        C761   1.412       .  A
C761        C762   1.414       .  A
C761       Br768   1.930       .  S
C762        C763   1.415   1_565  A
C762       Br767   1.930   1_565  S
C763        C764   1.404       .  A
C764       Br765   1.927       .  S
C769        C770   1.406       .  A
C769        C774   1.403       .  A
C769       Br776   1.939       .  S
C770        C771   1.410       .  A
C771        C772   1.405       .  A
C771       Br778   1.933       .  S
C772        C773   1.411       .  A
C772       Br777   1.932       .  S
C773        C774   1.420       .  A
C774       Br775   1.934   1_545  S
C779        C780   1.413       .  A
C779        C784   1.412       .  A
C779       Br786   1.931       .  S
C780        C781   1.425       .  A
C781        C782   1.412       .  A
C781       Br788   1.934       .  S
C782        C783   1.403       .  A
C782       Br787   1.926       .  S
C783        C784   1.410       .  A
C784       Br785   1.915       .  S
C789        C790   1.422       .  A
C789        C794   1.418       .  A
C789       Br796   1.935       .  S
C790        C791   1.416       .  A
C791        C792   1.411   1_455  A
C791       Br798   1.934       .  S
C792        C793   1.416       .  A
C792       Br797   1.936       .  S
C793        C794   1.414   1_655  A
C794       Br795   1.929   1_455  S
C799        C800   1.414       .  A
C799        C804   1.417       .  A
C799       Br806   1.925       .  S
C800        C801   1.408       .  A
C801        C802   1.413       .  A
C801       Br808   1.932       .  S
C802        C803   1.416       .  A
C802       Br807   1.927       .  S
C803        C804   1.410       .  A
C804       Br805   1.925       .  S
C809        C810   1.411       .  A
C809        C814   1.407       .  A
C809       Br816   1.935       .  S
C810        C811   1.405       .  A
C811        C812   1.410       .  A
C811       Br818   1.935       .  S
C812        C813   1.424       .  A
C812       Br817   1.934       .  S
C813        C814   1.415       .  A
C814       Br815   1.934       .  S
C819        C820   1.408       .  A
C819        C824   1.401       .  A
C819       Br826   1.930       .  S
C820        C821   1.397       .  A
C821        C822   1.398       .  A
C821       Br828   1.933       .  S
C822        C823   1.416       .  A
C822       Br827   1.926       .  S
C823        C824   1.407       .  A
C824       Br825   1.931       .  S
C829        C830   1.406       .  A
C829        C834   1.407       .  A
C829       Br836   1.930       .  S
C830        C831   1.405       .  A
C831        C832   1.410       .  A
C831       Br838   1.936       .  S
C832        C833   1.428       .  A
C832       Br837   1.936       .  S
C833        C834   1.419       .  A
C834       Br835   1.934       .  S
C839        C840   1.416       .  A
C839        C844   1.414       .  A
C839       Br846   1.931       .  S
C840        C841   1.423       .  A
C841        C842   1.415       .  A
C841       Br848   1.930       .  S
C842        C843   1.406       .  A
C842       Br847   1.928       .  S
C843        C844   1.416       .  A
C844       Br845   1.933       .  S
