geometry optimzed in LAMMPS
_audit_creation_date              2020-12-01 
_audit_creation_method            'lammps2cif' 
_symmetry_space_group_name_H-M    'P1' 
_symmetry_Int_Tables_number       1 
_symmetry_cell_setting            triclinic 
loop_ 
_symmetry_equiv_pos_as_xyz 
  x,y,z 
_cell_length_a                    49.1104605 
_cell_length_b                    49.63822147527497 
_cell_length_c                    28.858525194360702 
_cell_angle_alpha                 89.66365348709655 
_cell_angle_beta                  89.96043613269221 
_cell_angle_gamma                 89.96951675527735 
loop_ 
_atom_site_label 
_atom_site_type_symbol 
_atom_site_fract_x 
_atom_site_fract_y 
_atom_site_fract_z 
_atom_site_charge 
O1          O  0.59455094  0.69185073  0.89345703    -0.81500
C2          C  0.55864157  0.72641669  0.07052816     0.97800
O3          O  0.58310977  0.72117682  0.05988324    -0.70600
O4          O  0.60042386  0.67439465  0.02664866    -0.74200
Al5        Al  0.60049113  0.71029786  0.00223129     1.49000
C6          C  0.60120757  0.65369191  0.00174650     0.93100
O7          O  0.53847747  0.66344955  0.96806570    -0.80500
O8          O  0.53743830  0.73528832  0.90971289    -0.74000
Al9        Al  0.56653327  0.67843474  0.93183105     1.90100
O10         O  0.51503428  0.70083356  0.97713671    -0.73100
O11         O  0.56412857  0.76184857  0.97701123    -0.72900
O12         O  0.54086289  0.72721465  0.03950727    -0.78600
O13         O  0.60565680  0.74607081  0.98398699    -0.76800
O14         O  0.56971363  0.70639466  0.96996084    -1.12900
O15         O  0.62369758  0.70076949  0.94967783    -0.72100
C16         C  0.61859381  0.69668492  0.90695470     0.98600
C17         C  0.51679235  0.67527962  0.98005122     0.95000
Al18       Al  0.54192670  0.72937274  0.97519650     1.55600
O19         O  0.59120914  0.65467278  0.96180691    -0.76800
C20         C  0.58961627  0.76563191  0.97974980     0.99200
C21         C  0.53146597  0.71642894  0.88250176     0.94000
O22         O  0.54048589  0.69323419  0.89047507    -0.82100
O23         O  0.70232831  0.57717592  0.66535021    -0.81500
C24         C  0.74228189  0.54730668  0.48930977     0.97800
O25         O  0.73759793  0.57129967  0.50188570    -0.70600
O26         O  0.68839788  0.58092227  0.53174797    -0.74200
Al27       Al  0.72298101  0.58616087  0.55887999     1.49000
C28         C  0.66688689  0.57921303  0.55506626     0.93100
O29         O  0.68404697  0.51817930  0.59114889    -0.80500
O30         O  0.75671347  0.53045093  0.64782681    -0.74000
Al31       Al  0.69437502  0.54789510  0.62674778     1.90100
O32         O  0.72474012  0.49977513  0.58744869    -0.73100
O33         O  0.77817959  0.55711468  0.57322069    -0.72900
O34         O  0.74364835  0.52841929  0.51845730    -0.78600
O35         O  0.75745416  0.59541031  0.58184433    -0.76800
O36         O  0.72218327  0.55512012  0.58930179    -1.12900
O37         O  0.70825484  0.60735647  0.61000993    -0.72100
C38         C  0.70311734  0.60139281  0.65201876     0.98600
C39         C  0.69900745  0.49807248  0.58315091     0.95000
Al40       Al  0.74876077  0.53098082  0.58268290     1.55600
O41         O  0.66755038  0.56859687  0.59471455    -0.76800
C42         C  0.77910398  0.58265628  0.57481173     0.99200
C43         C  0.73911221  0.52375446  0.67783021     0.94000
O44         O  0.71409002  0.52575101  0.66881215    -0.82100
O45         O  0.57765192  0.26823464  0.37012720    -0.81500
C46         C  0.57966065  0.25261896  0.56302781     0.97800
O47         O  0.56931995  0.23731667  0.53320913    -0.70600
O48         O  0.53672290  0.26894088  0.48518520    -0.74200
Al49       Al  0.56283686  0.24236742  0.46888263     1.49000
C50         C  0.53070855  0.28960713  0.46156563     0.93100
O51         O  0.59155080  0.32115836  0.46022777    -0.80500
O52         O  0.64233904  0.26186990  0.44146044    -0.74000
Al53       Al  0.58472076  0.29273277  0.41825968     1.90100
O54         O  0.62563759  0.30284616  0.49770355    -0.73100
O55         O  0.61986635  0.22690477  0.49873018    -0.72900
O56         O  0.59861016  0.26848066  0.55099612    -0.78600
O57         O  0.58639316  0.21301732  0.45417232    -0.76800
O58         O  0.58898207  0.26686037  0.46030593    -1.12900
O59         O  0.54967104  0.24189989  0.40660903    -0.72100
C60         C  0.55855798  0.25147664  0.36907336     0.98600
C61         C  0.61196385  0.32321705  0.48618515     0.95000
Al62       Al  0.61914368  0.26516229  0.49451171     1.55600
O63         O  0.54675116  0.29845932  0.43071045    -0.76800
C64         C  0.60787288  0.20835992  0.47702503     0.99200
C65         C  0.64140299  0.27645566  0.40544438     0.94000
O66         O  0.62142619  0.29181889  0.39749908    -0.82100
O67         O  0.71981234  0.45197973  0.17289623    -0.81500
C68         C  0.74910299  0.43799672  0.99268716     0.97800
O69         O  0.74768570  0.45603240  0.02299126    -0.70600
O70         O  0.72814510  0.48144557  0.09452159    -0.74200
Al71       Al  0.75427774  0.45241712  0.08633427     1.49000
C72         C  0.70246217  0.48187572  0.08998933     0.93100
O73         O  0.67653042  0.40859629  0.09304222    -0.80500
O74         O  0.72166257  0.37202190  0.10933023    -0.74000
Al75       Al  0.70153671  0.42994060  0.12809033     1.90100
O76         O  0.69966149  0.39656736  0.03187386    -0.73100
O77         O  0.76963066  0.38916045  0.08352567    -0.72900
O78         O  0.74793456  0.41322156  0.00399196    -0.78600
O79         O  0.78614843  0.42971273  0.07480614    -0.76800
O80         O  0.73017385  0.42567270  0.09150681    -1.12900
O81         O  0.76269666  0.45203485  0.15085540    -0.72100
C82         C  0.74463582  0.45689356  0.18097801     0.98600
C83         C  0.67758617  0.39768487  0.05380886     0.95000
Al84       Al  0.73451734  0.39533200  0.05985211     1.55600
O85         O  0.68930840  0.46017096  0.09373459    -0.76800
C86         C  0.78965605  0.40447795  0.07781006     0.99200
C87         C  0.71449068  0.37642585  0.15082590     0.94000
O88         O  0.71088831  0.40012412  0.16514176    -0.82100
O89         O  0.42650020  0.28439213  0.89154300    -0.81500
C90         C  0.46524207  0.24476468  0.06178441     0.97800
O91         O  0.44029858  0.24804122  0.05203558    -0.70600
O92         O  0.42383726  0.29601962  0.02594067    -0.74200
Al93       Al  0.42195318  0.26170815  0.99746215     1.49000
C94         C  0.42335502  0.31792366  0.00401432     0.93100
O95         O  0.48493062  0.30855717  0.96429813    -0.80500
O96         O  0.47973444  0.23759235  0.90103001    -0.74000
Al97       Al  0.45540676  0.29564173  0.92891924     1.90100
O98         O  0.50790638  0.27028160  0.96313184    -0.73100
O99         O  0.45677891  0.21077850  0.97220261    -0.72900
O100        O  0.48302929  0.24570276  0.03056965    -0.78600
O101        O  0.41551482  0.22715413  0.97482171    -0.76800
O102        O  0.45219602  0.26650821  0.96450315    -1.12900
O103        O  0.39784029  0.27403686  0.94789708    -0.72100
C104        C  0.40276398  0.27873345  0.90529332     0.98600
C105        C  0.50694935  0.29564420  0.96908860     0.95000
Al106      Al  0.47948352  0.24291662  0.96650650     1.55600
O107        O  0.43204170  0.31888314  0.96308195    -0.76800
C108        C  0.43120709  0.20726115  0.97266359     0.99200
C109        C  0.48489376  0.25673358  0.87343344     0.94000
O110        O  0.47942545  0.28059711  0.88453907    -0.82100
O111        O  0.32420348  0.38838703  0.64893061    -0.81500
C112        C  0.27965115  0.42040697  0.47896198     0.97800
O113        O  0.28103711  0.39598861  0.49217342    -0.70600
O114        O  0.33038910  0.38066285  0.51577554    -0.74200
Al115      Al  0.29659842  0.37992086  0.54790774     1.49000
C116        C  0.35339553  0.38342642  0.53423224     0.93100
O117        O  0.34240792  0.44648029  0.57152566    -0.80500
O118        O  0.27182426  0.43926458  0.63791567    -0.74000
Al119      Al  0.33183417  0.41701056  0.60895939     1.90100
O120        O  0.30314611  0.46723482  0.57444055    -0.73100
O121        O  0.24587627  0.41496880  0.56756446    -0.72900
O122        O  0.28091152  0.43940534  0.50766118    -0.78600
O123        O  0.26186951  0.37418349  0.57532972    -0.76800
O124        O  0.30185137  0.41140048  0.57637307    -1.12900
O125        O  0.31207237  0.35799801  0.59794096    -0.72100
C126        C  0.32120414  0.36411188  0.63772613     0.98600
C127        C  0.32863386  0.46780350  0.56797419     0.95000
Al128      Al  0.27735396  0.43783845  0.57228512     1.55600
O129        O  0.35564266  0.39527284  0.57248558    -0.76800
C130        C  0.24186484  0.38994334  0.57158341     0.99200
C131        C  0.29099797  0.44460265  0.66569210     0.94000
O132        O  0.31542261  0.43988912  0.65453776    -0.82100
O133        O  0.45289743  0.70325831  0.38361330    -0.81500
C134        C  0.43655902  0.71729096  0.57487661     0.97800
O135        O  0.45163875  0.73161111  0.54928394    -0.70600
O136        O  0.48869746  0.70563154  0.50247313    -0.74200
Al137      Al  0.46070900  0.73054855  0.48516377     1.49000
C138        C  0.49669701  0.68546852  0.47999421     0.93100
O139        O  0.43918116  0.65112263  0.47701674    -0.80500
O140        O  0.38502830  0.70560586  0.43640623    -0.74000
Al141      Al  0.44539121  0.67870451  0.43248324     1.90100
O142        O  0.39953067  0.66612400  0.50009789    -0.73100
O143        O  0.39926201  0.74236492  0.50016447    -0.72900
O144        O  0.41766394  0.70298876  0.55818387    -0.78600
O145        O  0.43668426  0.75961759  0.47137593    -0.76800
O146        O  0.43642564  0.70482190  0.47141687    -1.12900
O147        O  0.47473391  0.73411031  0.42297203    -0.72100
C148        C  0.46876388  0.72328160  0.38467446     0.98600
C149        C  0.41639094  0.64708991  0.49589138     0.95000
Al150      Al  0.40315912  0.70448804  0.49660958     1.55600
O151        O  0.48206407  0.67648858  0.44825071    -0.76800
C152        C  0.41298579  0.76247268  0.48738118     0.99200
C153        C  0.38937345  0.68825393  0.40501230     0.94000
O154        O  0.41047773  0.67403173  0.40699037    -0.82100
O155        O  0.29537296  0.51101015  0.16573839    -0.81500
C156        C  0.27961925  0.53328969  0.98049896     0.97800
O157        O  0.27661805  0.51498919  0.01009922    -0.70600
O158        O  0.29350181  0.48658658  0.07933973    -0.74200
Al159      Al  0.26747718  0.51605294  0.07251420     1.49000
C160        C  0.31932894  0.48636086  0.08345516     0.93100
O161        O  0.34451867  0.55793235  0.10596722    -0.80500
O162        O  0.30097005  0.59393958  0.11012586    -0.74000
Al163      Al  0.31643265  0.53546978  0.12971063     1.90100
O164        O  0.32989780  0.56915513  0.03743264    -0.73100
O165        O  0.25611426  0.58063356  0.06658025    -0.72900
O166        O  0.28392580  0.55732118  0.99356305    -0.78600
O167        O  0.23718131  0.54081289  0.06069456    -0.76800
O168        O  0.29189762  0.54145310  0.08534696    -1.12900
O169        O  0.25476659  0.51272453  0.13513211    -0.72100
C170        C  0.27043617  0.50545957  0.16742177     0.98600
C171        C  0.34886864  0.56796648  0.06660895     0.95000
Al172      Al  0.29263299  0.57260232  0.05449268     1.55600
O173        O  0.33212938  0.50693009  0.09673969    -0.76800
C174        C  0.23526424  0.56631740  0.06165329     0.99200
C175        C  0.30165365  0.58826316  0.15336809     0.94000
O176        O  0.30262437  0.56384086  0.16592505    -0.82100
O177        O  0.10105487  0.18464792  0.40026442    -0.81500
C178        C  0.06072639  0.22605511  0.56822650     0.97800
O179        O  0.08590931  0.22413873  0.55826475    -0.70600
O180        O  0.10082250  0.17473287  0.53550379    -0.74200
Al181      Al  0.10448064  0.20832758  0.50464006     1.49000
C182        C  0.10029314  0.15257466  0.51459609     0.93100
O183        O  0.03964783  0.16333703  0.46871090    -0.80500
O184        O  0.04881637  0.23510145  0.40891061    -0.74000
Al185      Al  0.07059025  0.17533787  0.43605270     1.90100
O186        O  0.01814141  0.20221837  0.46697800    -0.73100
O187        O  0.07106701  0.25951678  0.48294424    -0.72900
O188        O  0.04304682  0.22338296  0.53722560    -0.78600
O189        O  0.11198111  0.24223325  0.47815580    -0.76800
O190        O  0.07430214  0.20403925  0.47152119    -1.12900
O191        O  0.12914108  0.19289653  0.45760841    -0.72100
C192        C  0.12497255  0.18581111  0.41583743     0.98600
C193        C  0.01800324  0.17679369  0.47188822     0.95000
Al194      Al  0.04758053  0.22819645  0.47372410     1.55600
O195        O  0.09154869  0.15132853  0.47362709    -0.76800
C196        C  0.09669202  0.26251418  0.48078072     0.99200
C197        C  0.04420229  0.21674050  0.37986125     0.94000
O198        O  0.04893381  0.19239138  0.38968962    -0.82100
O199        O  0.21625913  0.08302469  0.16552855    -0.81500
C200        C  0.24663647  0.05101670  0.98660056     0.97800
O201        O  0.24701508  0.07525815  0.00004792    -0.70600
O202        O  0.20062523  0.09139562  0.03338705    -0.74200
Al203      Al  0.23617923  0.09107047  0.05850221     1.49000
C204        C  0.17879937  0.08968404  0.05583488     0.93100
O205        O  0.18863058  0.02750024  0.09061835    -0.80500
O206        O  0.26343226  0.02956430  0.14340900    -0.74000
Al207      Al  0.20361497  0.05557392  0.12646475     1.90100
O208        O  0.22659199  0.00441765  0.08438256    -0.73100
O209        O  0.28640243  0.05360107  0.06961592    -0.72900
O210        O  0.24674762  0.03176358  0.01518504    -0.78600
O211        O  0.27238361  0.09497972  0.07845219    -0.76800
O212        O  0.23146872  0.05975173  0.08790462    -1.12900
O213        O  0.22593674  0.11312231  0.11168408    -0.72100
C214        C  0.22122799  0.10701494  0.15379989     0.98600
C215        C  0.20083998  0.00569450  0.08218692     0.95000
Al216      Al  0.25408910  0.03221013  0.07895097     1.55600
O217        O  0.17885815  0.07951752  0.09590246    -0.76800
C218        C  0.29150631  0.07846681  0.07276102     0.99200
C219        C  0.24581722  0.02512016  0.17454506     0.94000
O220        O  0.22113567  0.03065643  0.16707358    -0.82100
O221        O  0.06902310  0.78114558  0.88197386    -0.81500
C222        C  0.07975714  0.75962529  0.07285115     0.97800
O223        O  0.06730747  0.74482136  0.04413424    -0.70600
O224        O  0.03127752  0.77163626  0.99466632    -0.74200
Al225      Al  0.06062567  0.74822886  0.97882641     1.49000
C226        C  0.02412175  0.79349685  0.97571436     0.93100
O227        O  0.08401571  0.82895129  0.97974220    -0.80500
O228        O  0.13645140  0.77244788  0.94519490    -0.74000
Al229      Al  0.07744719  0.80273889  0.93337046     1.90100
O230        O  0.12191176  0.81204634  0.00523887    -0.73100
O231        O  0.11971066  0.73592318  0.00546901    -0.72900
O232        O  0.09828409  0.77565781  0.05970659    -0.78600
O233        O  0.08637992  0.72041889  0.96357266    -0.76800
O234        O  0.08455061  0.77494635  0.97083603    -1.12900
O235        O  0.04884454  0.74712046  0.91587915    -0.72100
C236        C  0.05384709  0.76077716  0.87984754     0.98600
C237        C  0.10624183  0.83191798  0.00055146     0.95000
Al238      Al  0.11624123  0.77405799  0.00130845     1.55600
O239        O  0.04022563  0.80591460  0.94925097    -0.76800
C240        C  0.10895462  0.71687083  0.98354752     0.99200
C241        C  0.13429099  0.78933358  0.91249334     0.94000
O242        O  0.11381265  0.80476205  0.90918981    -0.82100
O243        O  0.21944622  0.95229909  0.67144557    -0.81500
C244        C  0.25111137  0.93896264  0.48955923     0.97800
O245        O  0.24769605  0.95711539  0.51910702    -0.70600
O246        O  0.22591831  0.98198444  0.58842534    -0.74200
Al247      Al  0.25352393  0.95463163  0.58304320     1.49000
C248        C  0.20016602  0.98106263  0.58773445     0.93100
O249        O  0.17846066  0.90726874  0.59084465    -0.80500
O250        O  0.22248539  0.87241051  0.60527838    -0.74000
Al251      Al  0.20227397  0.92946860  0.62683028     1.90100
O252        O  0.20160564  0.89833898  0.52811077    -0.73100
O253        O  0.27100933  0.89166844  0.58273483    -0.72900
O254        O  0.25063318  0.91439061  0.50185822    -0.78600
O255        O  0.28610482  0.93303679  0.57467539    -0.76800
O256        O  0.23071466  0.92695374  0.58908235    -1.12900
O257        O  0.26171438  0.95601486  0.64752981    -0.72100
C258        C  0.24373024  0.95961245  0.67810754     0.98600
C259        C  0.17952569  0.89786242  0.55033561     0.95000
Al260      Al  0.23616319  0.89677212  0.55723808     1.55600
O261        O  0.18767668  0.95929134  0.59484409    -0.76800
C262        C  0.29048924  0.90800802  0.57902887     0.99200
C263        C  0.21574993  0.87630608  0.64715104     0.94000
O264        O  0.21372948  0.89986282  0.66282018    -0.82100
O265        O  0.92787718  0.78534110  0.39087128    -0.81500
C266        C  0.96367618  0.75268217  0.56791715     0.97800
O267        O  0.93889587  0.75602096  0.55690488    -0.70600
O268        O  0.92573073  0.80274992  0.52297950    -0.74200
Al269      Al  0.92163502  0.76752521  0.49964508     1.49000
C270        C  0.92608755  0.82360660  0.49832023     0.93100
O271        O  0.98791897  0.80858337  0.46083616    -0.80500
O272        O  0.97892672  0.73471787  0.41008662    -0.74000
Al273      Al  0.95756906  0.79585392  0.42739989     1.90100
O274        O  0.00835823  0.76921716  0.46662985    -0.73100
O275        O  0.95391148  0.71386870  0.48679075    -0.72900
O276        O  0.98180899  0.75088526  0.53748643    -0.78600
O277        O  0.91321750  0.73188291  0.48233027    -0.76800
O278        O  0.95235200  0.76884458  0.46710401    -1.12900
O279        O  0.89846162  0.77965160  0.44780307    -0.72100
C280        C  0.90363041  0.78463615  0.40528095     0.98600
C281        C  0.00915542  0.79477858  0.46783543     0.95000
Al282      Al  0.97839130  0.74408864  0.47442495     1.55600
O283        O  0.93572840  0.82236255  0.45801813    -0.76800
C284        C  0.92820441  0.71155066  0.48764671     0.99200
C285        C  0.98496288  0.75209806  0.37954790     0.94000
O286        O  0.98027312  0.77670967  0.38596598    -0.82100
O287        O  0.80857357  0.88973511  0.16020285    -0.81500
C288        C  0.77495909  0.92395684  0.98319692     0.97800
O289        O  0.77609254  0.89957081  0.99599554    -0.70600
O290        O  0.82348796  0.88398310  0.02723526    -0.74200
Al291      Al  0.78808884  0.88321168  0.05345011     1.49000
C292        C  0.84521956  0.88479410  0.05007265     0.93100
O293        O  0.83491531  0.94708086  0.08651413    -0.80500
O294        O  0.76089882  0.94396402  0.14160495    -0.74000
Al295      Al  0.82054337  0.91811753  0.12180372     1.90100
O296        O  0.79649646  0.96956679  0.08043369    -0.73100
O297        O  0.73676799  0.91918704  0.06945338    -0.72900
O298        O  0.77472565  0.94274561  0.01226285    -0.78600
O299        O  0.75229391  0.87801786  0.07428371    -0.76800
O300        O  0.79235345  0.91418771  0.08386167    -1.12900
O301        O  0.79939643  0.86042387  0.10542688    -0.72100
C302        C  0.80419364  0.86580549  0.14766174     0.98600
C303        C  0.82234244  0.96888860  0.07905112     0.95000
Al304      Al  0.76903396  0.94145328  0.07654955     1.55600
O305        O  0.84524369  0.89482245  0.09004108    -0.76800
C306        C  0.73251936  0.89402640  0.07150608     0.99200
C307        C  0.77894120  0.94868780  0.17177827     0.94000
O308        O  0.80336779  0.94237759  0.16388351    -0.82100
O309        O  0.96860081  0.19085176  0.88898294    -0.81500
C310        C  0.95258826  0.21927188  0.07001909     0.97800
O311        O  0.97042449  0.22081176  0.03886753    -0.70600
O312        O  0.99724507  0.20136077  0.96897057    -0.74200
Al313      Al  0.96627826  0.22539289  0.97501672     1.49000
C314        C  0.99924189  0.17591169  0.97219699     0.93100
O315        O  0.92722543  0.14515787  0.96829794    -0.80500
O316        O  0.88758440  0.18773051  0.95459499    -0.74000
Al317      Al  0.94725649  0.17171335  0.93381166     1.90100
O318        O  0.91558148  0.16624161  0.03108237    -0.73100
O319        O  0.90133131  0.23551885  0.98407098    -0.72900
O320        O  0.92797692  0.21440316  0.05997460    -0.78600
O321        O  0.94099366  0.25491212  0.98387783    -0.76800
O322        O  0.94134542  0.19944323  0.97136912    -1.12900
O323        O  0.96522858  0.23292859  0.91011502    -0.72100
C324        C  0.97123019  0.21560010  0.87993691     0.98600
C325        C  0.91783089  0.14470489  0.00891180     0.95000
Al326      Al  0.91077315  0.20084843  0.00455774     1.55600
O327        O  0.97868244  0.16099692  0.96671931    -0.76800
C328        C  0.91530236  0.25667841  0.98465673     0.99200
C329        C  0.89266307  0.18377911  0.91195326     0.94000
O330        O  0.91673947  0.18041315  0.89794958    -0.82100
O331        O  0.80356402  0.01788984  0.66289624    -0.81500
C332        C  0.77140349  0.03788699  0.48408348     0.97800
O333        O  0.77385346  0.01902107  0.51296810    -0.70600
O334        O  0.79524540  0.99160604  0.58060849    -0.74200
Al335      Al  0.76850742  0.02027310  0.57692078     1.49000
C336        C  0.82099759  0.99206924  0.57741248     0.93100
O337        O  0.84557844  0.06510305  0.58596609    -0.80500
O338        O  0.80206905  0.10054617  0.60542410    -0.74000
Al339      Al  0.82098321  0.04210478  0.61979365     1.90100
O340        O  0.82230325  0.07745563  0.52493617    -0.73100
O341        O  0.75263333  0.08355445  0.57999450    -0.72900
O342        O  0.77303087  0.06229433  0.49727928    -0.78600
O343        O  0.73662089  0.04286860  0.57020702    -0.76800
O344        O  0.79232290  0.04702688  0.58357225    -1.12900
O345        O  0.76072534  0.01823590  0.64147144    -0.72100
C346        C  0.77885221  0.01248113  0.67079765     0.98600
C347        C  0.84456475  0.07612096  0.54648201     0.95000
Al348      Al  0.78767195  0.07835892  0.55437177     1.55600
O349        O  0.83395340  0.01361207  0.58360448    -0.76800
C350        C  0.73267031  0.06779684  0.57603625     0.99200
C351        C  0.80931323  0.09449005  0.64659874     0.94000
O352        O  0.81064791  0.07017789  0.65911963    -0.82100
C353        C  0.83480641  0.15428743  0.84235209    -0.05200
C354        C  0.84163496  0.16438842  0.79793644     0.09000
C355        C  0.86042800  0.18576074  0.79403994    -0.02600
C356        C  0.87415088  0.19508690  0.83373993    -0.00800
C357        C  0.87067786  0.18177768  0.87679000    -0.04500
C358        C  0.84966984  0.16257238  0.88169161     0.02600
C359        C  0.83406810  0.14845710  0.75586645     0.09400
C360        C  0.86752634  0.19640385  0.74873470     0.35300
C361        C  0.84497925  0.14950597  0.92601246     0.38700
C362        C  0.81259723  0.15623997  0.72609498    -0.04800
C363        C  0.80495667  0.13952260  0.68850821     0.02300
C364        C  0.81898698  0.11507762  0.68051453    -0.04400
C365        C  0.84240814  0.10911975  0.70755643    -0.00700
C366        C  0.84926374  0.12514623  0.74578440    -0.03200
C367        C  0.79831446  0.18126747  0.73455769     0.36000
C368        C  0.86053635  0.08719878  0.69501967     0.39700
C369        C  0.78281151  0.14752971  0.65834119     0.38800
C370        C  0.87193436  0.11740418  0.77539573     0.35700
C371        C  0.81411093  0.13360056  0.84673788     0.36400
C372        C  0.89281964  0.21766822  0.83013380     0.39600
N373        N  0.76534998  0.15423913  0.63395761    -0.38400
N374        N  0.78710255  0.20138016  0.74128455    -0.40000
N375        N  0.87544944  0.07007599  0.68526997    -0.37800
N376        N  0.88979220  0.11117844  0.79932691    -0.40100
N377        N  0.87341623  0.20475504  0.71257365    -0.39900
N378        N  0.90765618  0.23572850  0.82761802    -0.37500
N379        N  0.84109752  0.13890380  0.96120518    -0.38600
N380        N  0.79757439  0.11710204  0.85008527    -0.40300
C381        C  0.84575879  0.03645110  0.02853984    -0.05200
C382        C  0.86807877  0.04261024  0.05748436     0.09000
C383        C  0.87535596  0.02457621  0.09331767    -0.02600
C384        C  0.86080565  0.00029404  0.09964181    -0.00800
C385        C  0.83818140  0.99416905  0.07101659    -0.04500
C386        C  0.83051834  0.01267560  0.03584031     0.02600
C387        C  0.88293586  0.06882546  0.05134694     0.09400
C388        C  0.89728282  0.03150318  0.12473144     0.35300
C389        C  0.80700631  0.00745422  0.00686331     0.38700
C390        C  0.87005485  0.09317651  0.06365370    -0.04800
C391        C  0.88218417  0.11811540  0.05240026     0.02300
C392        C  0.90757831  0.11890263  0.02904638    -0.04400
C393        C  0.92172479  0.09451655  0.02120200    -0.00700
C394        C  0.90927947  0.06955362  0.03168031    -0.03200
C395        C  0.84384292  0.09249583  0.08689827     0.36000
C396        C  0.94937797  0.09514167  0.00345554     0.39700
C397        C  0.86766203  0.14279912  0.06298388     0.38800
C398        C  0.92332531  0.04460922  0.02125665     0.35700
C399        C  0.83832844  0.05484687  0.99133365     0.36400
C400        C  0.86842593  0.98233525  0.13733587     0.39600
N401        N  0.85598446  0.16241970  0.07148385    -0.38400
N402        N  0.82290847  0.09189837  0.10530694    -0.40000
N403        N  0.97154661  0.09571480  0.98983287    -0.37800
N404        N  0.93460272  0.02470448  0.01317415    -0.40100
N405        N  0.91472245  0.03709883  0.14984755    -0.39900
N406        N  0.87458453  0.96804566  0.16738292    -0.37500
N407        N  0.78817879  0.00369640  0.98368081    -0.38600
N408        N  0.83241356  0.06962109  0.96184302    -0.40300
C409        C  0.79356986  0.96041535  0.87256553    -0.05200
C410        C  0.77032567  0.95577295  0.84500921     0.09000
C411        C  0.75020522  0.93748010  0.86051944    -0.02600
C412        C  0.75263835  0.92504358  0.90453333    -0.00800
C413        C  0.77485241  0.93144366  0.93346094    -0.04500
C414        C  0.79595256  0.94803296  0.91636300     0.02600
C415        C  0.76796677  0.96948811  0.79884827     0.09400
C416        C  0.72679971  0.93192426  0.83150962     0.35300
C417        C  0.82054646  0.95167084  0.94351949     0.38700
C418        C  0.77534373  0.95554843  0.75830208    -0.04800
C419        C  0.77735001  0.96945675  0.71575805     0.02300
C420        C  0.77191189  0.99737351  0.71347152    -0.04400
C421        C  0.76267088  0.01095763  0.75326064    -0.00700
C422        C  0.76088873  0.99706576  0.79602758    -0.03200
C423        C  0.78191164  0.92708162  0.76075567     0.36000
C424        C  0.75577734  0.03932259  0.75035468     0.39700
C425        C  0.78541066  0.95495294  0.67445491     0.38800
C426        C  0.75277817  0.01129790  0.83755955     0.35700
C427        C  0.81494049  0.97818687  0.85594835     0.36400
C428        C  0.73241527  0.90569680  0.91983055     0.39600
N429        N  0.79167738  0.94290539  0.64195542    -0.38400
N430        N  0.78705932  0.90434364  0.76268464    -0.40000
N431        N  0.75013485  0.06193305  0.74788460    -0.37800
N432        N  0.74646292  0.02258967  0.87084203    -0.40100
N433        N  0.70817171  0.92751778  0.80822606    -0.39900
N434        N  0.71643158  0.88987855  0.93129781    -0.37500
N435        N  0.84019641  0.95428482  0.96513187    -0.38600
N436        N  0.83189552  0.99247231  0.84269141    -0.40300
C437        C  0.78294161  0.97010967  0.29862172    -0.05200
C438        C  0.76652320  0.99344597  0.29891610     0.09000
C439        C  0.75245626  0.00101595  0.25825991    -0.02600
C440        C  0.75516387  0.98560678  0.21727042    -0.00800
C441        C  0.77254251  0.96275912  0.21633899    -0.04500
C442        C  0.78635170  0.95515525  0.25761122     0.02600
C443        C  0.76342332  0.00895359  0.34326422     0.09400
C444        C  0.73533289  0.02480422  0.25869260     0.35300
C445        C  0.80438968  0.93196909  0.25838340     0.38700
C446        C  0.77985654  0.03165679  0.35254680    -0.04800
C447        C  0.78081504  0.04272877  0.39775150     0.02300
C448        C  0.76633937  0.03028560  0.43456001    -0.04400
C449        C  0.74913411  0.00801494  0.42432351    -0.00700
C450        C  0.74686437  0.99833022  0.37867868    -0.03200
C451        C  0.79681906  0.04273299  0.31601070     0.36000
C452        C  0.73516861  0.99332776  0.46087749     0.39700
C453        C  0.79847481  0.06547485  0.40691975     0.38800
C454        C  0.72832086  0.97639481  0.36833640     0.35700
C455        C  0.79637220  0.96137506  0.34096072     0.36400
C456        C  0.74092904  0.99409466  0.17567280     0.39600
N457        N  0.81258402  0.08363822  0.41417644    -0.38400
N458        N  0.81038622  0.05148066  0.28678612    -0.40000
N459        N  0.72468462  0.98066025  0.48957574    -0.37800
N460        N  0.71342908  0.95902898  0.35998278    -0.40100
N461        N  0.72176146  0.04386957  0.25911260    -0.39900
N462        N  0.72948459  0.00088258  0.14255732    -0.37500
N463        N  0.81910653  0.91375524  0.25945539    -0.38600
N464        N  0.80685342  0.95427109  0.37479423    -0.40300
C465        C  0.86693001  0.82402657  0.31079672    -0.05200
C466        C  0.84440202  0.80742562  0.30118467     0.09000
C467        C  0.84004826  0.78392825  0.32805798    -0.02600
C468        C  0.85870515  0.77667263  0.36359871    -0.00800
C469        C  0.88186896  0.79284405  0.37197883    -0.04500
C470        C  0.88537821  0.81696722  0.34605513     0.02600
C471        C  0.82648554  0.81494891  0.26104550     0.09400
C472        C  0.81675821  0.76700716  0.31830185     0.35300
C473        C  0.90789619  0.83504542  0.35559014     0.38700
C474        C  0.83450164  0.80764111  0.21584240    -0.04800
C475        C  0.82483624  0.82236163  0.17711124     0.02300
C476        C  0.80674256  0.84420647  0.18353312    -0.04400
C477        C  0.79550929  0.84851380  0.22800950    -0.00700
C478        C  0.80585719  0.83443577  0.26683475    -0.03200
C479        C  0.85471902  0.78663501  0.20975886     0.36000
C480        C  0.77400788  0.86826163  0.23386069     0.39700
C481        C  0.83549010  0.81636240  0.13152231     0.38800
C482        C  0.79713370  0.84173977  0.31308036     0.35700
C483        C  0.87150124  0.84824957  0.28331452     0.36400
C484        C  0.85465227  0.75216731  0.39023096     0.39600
N485        N  0.84426968  0.81108160  0.09551783    -0.38400
N486        N  0.87089224  0.76989347  0.20511738    -0.40000
N487        N  0.75677901  0.88398206  0.23810360    -0.37800
N488        N  0.79031699  0.84777401  0.34997533    -0.40100
N489        N  0.79815007  0.75351669  0.31037299    -0.39900
N490        N  0.85145230  0.73261523  0.41161283    -0.37500
N491        N  0.92567373  0.84978214  0.36235866    -0.38600
N492        N  0.87511120  0.86744473  0.26118399    -0.40300
C493        C  0.90689049  0.89800679  0.50829644    -0.05200
C494        C  0.88484276  0.89661371  0.53935769     0.09000
C495        C  0.87773318  0.87191954  0.56009805    -0.02600
C496        C  0.89154300  0.84816598  0.54774346    -0.00800
C497        C  0.91337159  0.84910063  0.51526924    -0.04500
C498        C  0.92133099  0.87445168  0.49654204     0.02600
C499        C  0.86834651  0.92108382  0.54927108     0.09400
C500        C  0.85576644  0.87100637  0.59380427     0.35300
C501        C  0.94441855  0.87665716  0.46533200     0.38700
C502        C  0.84475704  0.92649446  0.52301082    -0.04800
C503        C  0.82880119  0.94935720  0.53272920     0.02300
C504        C  0.83654027  0.96703431  0.56857474    -0.04400
C505        C  0.85979109  0.96101280  0.59578666    -0.00700
C506        C  0.87577825  0.93824815  0.58576270    -0.03200
C507        C  0.83709533  0.90856864  0.48566337     0.36000
C508        C  0.86667971  0.97750324  0.63547589     0.39700
C509        C  0.80478014  0.95474530  0.50512167     0.38800
C510        C  0.89990120  0.93236148  0.61299542     0.35700
C511        C  0.91447885  0.92380358  0.48818502     0.36400
C512        C  0.88197261  0.82282060  0.56709959     0.39600
N513        N  0.78560658  0.95855298  0.48280373    -0.38400
N514        N  0.83102484  0.89428289  0.45585609    -0.40000
N515        N  0.87209652  0.99054278  0.66728039    -0.37800
N516        N  0.91919642  0.92766279  0.63457608    -0.40100
N517        N  0.83834286  0.87037284  0.62080809    -0.39900
N518        N  0.87417540  0.80273783  0.58277549    -0.37500
N519        N  0.96276418  0.87858834  0.44033107    -0.38600
N520        N  0.92043749  0.94444776  0.47234337    -0.40300
C521        C  0.06754484  0.84473801  0.45548577    -0.05200
C522        C  0.08376851  0.83790044  0.49404007     0.09000
C523        C  0.07635554  0.81594077  0.52263388    -0.02600
C524        C  0.05242873  0.80121974  0.51331827    -0.00800
C525        C  0.03540267  0.80884504  0.47594984    -0.04500
C526        C  0.04333348  0.83043712  0.44660540     0.02600
C527        C  0.10838411  0.85430759  0.50528145     0.09400
C528        C  0.09315384  0.80887360  0.56223183     0.35300
C529        C  0.02701285  0.83757554  0.40645738     0.38700
C530        C  0.10548379  0.87895383  0.52880774    -0.04800
C531        C  0.12866609  0.89413011  0.54079713     0.02300
C532        C  0.15508529  0.88422770  0.53087494    -0.04400
C533        C  0.15783776  0.85955073  0.50669252    -0.00700
C534        C  0.13452413  0.84499102  0.49322417    -0.03200
C535        C  0.07854484  0.88832188  0.54169054     0.36000
C536        C  0.18451415  0.84799912  0.49812487     0.39700
C537        C  0.12518350  0.92000639  0.56321812     0.38800
C538        C  0.13736696  0.82006422  0.46763906     0.35700
C539        C  0.07593374  0.86650898  0.42490135     0.36400
C540        C  0.04508983  0.77875349  0.54315976     0.39600
N541        N  0.12239391  0.94063324  0.58111834    -0.38400
N542        N  0.05702186  0.89564377  0.55204289    -0.40000
N543        N  0.20570557  0.83857548  0.49141846    -0.37800
N544        N  0.13960500  0.80021166  0.44714997    -0.40100
N545        N  0.10658120  0.80328797  0.59380629    -0.39900
N546        N  0.03958535  0.76075888  0.56704086    -0.37500
N547        N  0.01403209  0.84330449  0.37441522    -0.38600
N548        N  0.08276618  0.88384214  0.40056460    -0.40300
C549        C  0.95760736  0.83172010  0.95548627    -0.05200
C550        C  0.94564021  0.83062864  0.99980296     0.09000
C551        C  0.95846719  0.81595994  0.03564427    -0.02600
C552        C  0.98380317  0.80333782  0.02777381    -0.00800
C553        C  0.99640841  0.80504238  0.98371284    -0.04500
C554        C  0.98263576  0.81866469  0.94716524     0.02600
C555        C  0.91973317  0.84549176  0.00913219     0.09400
C556        C  0.94558284  0.81412118  0.08082210     0.35300
C557        C  0.99364908  0.81865745  0.90044747     0.38700
C558        C  0.89444081  0.83390375  0.99772040    -0.04800
C559        C  0.86999220  0.84757760  0.00804781     0.02300
C560        C  0.87071432  0.87260203  0.03153253    -0.04400
C561        C  0.89624168  0.88461840  0.04110744    -0.00700
C562        C  0.92059556  0.87112028  0.02981191    -0.03200
C563        C  0.89364356  0.80739930  0.97684184     0.36000
C564        C  0.89762202  0.91110980  0.06195309     0.39700
C565        C  0.84421474  0.83509220  0.99623819     0.38800
C566        C  0.94669171  0.88340533  0.04007923     0.35700
C567        C  0.94421342  0.84662768  0.91856497     0.36400
C568        C  0.99711922  0.78924724  0.06552960     0.39600
N569        N  0.82371374  0.82501605  0.98685488    -0.38400
N570        N  0.89305951  0.78619090  0.96042586    -0.40000
N571        N  0.89888206  0.93224028  0.07854032    -0.37800
N572        N  0.96753038  0.89313824  0.04827746    -0.40100
N573        N  0.93519893  0.81268470  0.11676638    -0.39900
N574        N  0.00778124  0.77780565  0.09543393    -0.37500
N575        N  0.00237158  0.81859631  0.86317194    -0.38600
N576        N  0.93348884  0.85856987  0.88924253    -0.40300
C577        C  0.18668346  0.82283003  0.83675017    -0.05200
C578        C  0.18511237  0.80652070  0.79688752     0.09000
C579        C  0.17170630  0.78140289  0.79940573    -0.02600
C580        C  0.15771340  0.77390890  0.84031569    -0.00800
C581        C  0.15604412  0.79216745  0.87749353    -0.04500
C582        C  0.17172815  0.81591429  0.87667765     0.02600
C583        C  0.19154795  0.81914139  0.75103321     0.09400
C584        C  0.17030061  0.76452671  0.75868434     0.35300
C585        C  0.17114607  0.83397578  0.91602367     0.38700
C586        C  0.21723691  0.81615144  0.72969780    -0.04800
C587        C  0.22470419  0.83327995  0.69233418     0.02300
C588        C  0.20671758  0.85379720  0.67751889    -0.04400
C589        C  0.17993054  0.85450143  0.69555746    -0.00700
C590        C  0.17239449  0.83718695  0.73196609    -0.03200
C591        C  0.23608716  0.79607530  0.74711960     0.36000
C592        C  0.15988941  0.87326773  0.67735454     0.39700
C593        C  0.25087277  0.83011553  0.66989172     0.38800
C594        C  0.14522290  0.83899178  0.75169189     0.35700
C595        C  0.20162730  0.84803607  0.83499161     0.36400
C596        C  0.14322013  0.74849026  0.84288491     0.39600
N597        N  0.27158725  0.82709514  0.65151331    -0.38400
N598        N  0.25105189  0.77990873  0.76094475    -0.40000
N599        N  0.14330469  0.88787775  0.66378696    -0.37800
N600        N  0.12361217  0.84060236  0.76743705    -0.40100
N601        N  0.16905669  0.75115648  0.72603807    -0.39900
N602        N  0.13159707  0.72824686  0.84514819    -0.37500
N603        N  0.17058655  0.84832757  0.94745986    -0.38600
N604        N  0.21348715  0.86816051  0.83336052    -0.40300
C605        C  0.05095786  0.77891269  0.19040111    -0.05200
C606        C  0.04551506  0.75316300  0.20937164     0.09000
C607        C  0.05476944  0.72997488  0.18625149    -0.02600
C608        C  0.06825527  0.73237500  0.14336171    -0.00800
C609        C  0.07167843  0.75793006  0.12235734    -0.04500
C610        C  0.06395324  0.78133124  0.14684313     0.02600
C611        C  0.02962902  0.75021310  0.25337631     0.09400
C612        C  0.04957419  0.70354618  0.20602917     0.35300
C613        C  0.06761666  0.80775202  0.12595388     0.38700
C614        C  0.00086954  0.75044723  0.25236987    -0.04800
C615        C  0.98590098  0.74794262  0.29387711     0.02300
C616        C  0.99955348  0.74516387  0.33657058    -0.04400
C617        C  0.02828026  0.74367358  0.33739090    -0.00700
C618        C  0.04328434  0.74636903  0.29590766    -0.03200
C619        C  0.98659627  0.75414034  0.20886667     0.36000
C620        C  0.04248966  0.74089907  0.38122425     0.39700
C621        C  0.95637177  0.74916866  0.29304243     0.38800
C622        C  0.07281267  0.74641702  0.29710724     0.35700
C623        C  0.04240143  0.80283577  0.21508727     0.36400
C624        C  0.07905964  0.70851228  0.12113694     0.39600
N625        N  0.93282470  0.75008238  0.29250939    -0.38400
N626        N  0.97477774  0.75715515  0.17456424    -0.40000
N627        N  0.05396649  0.73863736  0.41604682    -0.37800
N628        N  0.09637115  0.74660608  0.29798899    -0.40100
N629        N  0.04525245  0.68251125  0.22187350    -0.39900
N630        N  0.08798004  0.68950415  0.10376476    -0.37500
N631        N  0.07044069  0.82880602  0.10918151    -0.38600
N632        N  0.03558511  0.82193878  0.23476886    -0.40300
C633        C  0.97792911  0.76885087  0.69432908    -0.05200
C634        C  0.99531898  0.74731668  0.70657523     0.09000
C635        C  0.99995668  0.72629422  0.67505638    -0.02600
C636        C  0.98890782  0.72773838  0.63013660    -0.00800
C637        C  0.97231479  0.74986983  0.61695479    -0.04500
C638        C  0.96635391  0.77011401  0.64961310     0.02600
C639        C  0.01109762  0.74829186  0.75071248     0.09400
C640        C  0.01655321  0.70342150  0.68879887     0.35300
C641        C  0.95009387  0.79327560  0.63637754     0.38700
C642        C  0.99945464  0.73932292  0.79257361    -0.04800
C643        C  0.01360017  0.74266405  0.83471135     0.02300
C644        C  0.04016129  0.75414600  0.83500501    -0.04400
C645        C  0.05214274  0.76192469  0.79215754    -0.00700
C646        C  0.03756756  0.75914186  0.75045501    -0.03200
C647        C  0.97268560  0.72699126  0.79212065     0.36000
C648        C  0.07921704  0.77347458  0.79034277     0.39700
C649        C  0.99968070  0.73597789  0.87767970     0.38800
C650        C  0.04963456  0.76803100  0.70699465     0.35700
C651        C  0.97282496  0.79019905  0.72735091     0.36400
C652        C  0.99495510  0.70650702  0.59728417     0.39600
N653        N  0.98842287  0.73081632  0.91182039    -0.38400
N654        N  0.95138780  0.71700810  0.79160735    -0.40000
N655        N  0.10062676  0.78311453  0.78813123    -0.37800
N656        N  0.05925345  0.77511724  0.67242108    -0.40100
N657        N  0.02966462  0.68513191  0.69998849    -0.39900
N658        N  0.99990363  0.68967459  0.57100664    -0.37500
N659        N  0.93734443  0.81202054  0.62632136    -0.38600
N660        N  0.96879468  0.80714762  0.75385606    -0.40300
C661        C  0.11942953  0.90780103  0.00504457    -0.05200
C662        C  0.13854335  0.90920952  0.04128724     0.09000
C663        C  0.14482572  0.88592264  0.06726595    -0.02600
C664        C  0.13285592  0.86101245  0.05597163    -0.00800
C665        C  0.11504456  0.85898460  0.01741972    -0.04500
C666        C  0.10788976  0.88280620  0.99271199     0.02600
C667        C  0.15359426  0.93481051  0.05031170     0.09400
C668        C  0.16442024  0.88751824  0.10478620     0.35300
C669        C  0.08993643  0.88171737  0.95285646     0.38700
C670        C  0.14560860  0.95181018  0.08680010    -0.04800
C671        C  0.16131732  0.97468177  0.09772772     0.02300
C672        C  0.18471937  0.98119281  0.07117168    -0.04400
C673        C  0.19254193  0.96411808  0.03434733    -0.00700
C674        C  0.17695814  0.94108908  0.02395290    -0.03200
C675        C  0.12127456  0.94558297  0.11328263     0.36000
C676        C  0.21657760  0.97000189  0.00685415     0.39700
C677        C  0.15427832  0.99047164  0.13817864     0.38800
C678        C  0.18505579  0.92362025  0.98620824     0.35700
C679        C  0.11229696  0.93209243  0.97958870     0.36400
C680        C  0.13905742  0.83755454  0.08433520     0.39600
N681        N  0.14877264  0.00297580  0.17059777    -0.38400
N682        N  0.10180358  0.94066981  0.13429002    -0.40000
N683        N  0.23576743  0.97420967  0.98467891    -0.37800
N684        N  0.19146738  0.90974071  0.95602023    -0.40100
N685        N  0.18012505  0.88888977  0.13455639    -0.39900
N686        N  0.14406946  0.81889995  0.10702592    -0.37500
N687        N  0.07566989  0.88097339  0.92098016    -0.38600
N688        N  0.10662161  0.95150228  0.95938322    -0.40300
C689        C  0.06742192  0.15859168  0.02764982    -0.05200
C690        C  0.07671593  0.13791846  0.99829267     0.09000
C691        C  0.06105569  0.13027679  0.95967294    -0.02600
C692        C  0.03588547  0.14295655  0.95080681    -0.00800
C693        C  0.02617351  0.16328852  0.98078827    -0.04500
C694        C  0.04222344  0.17124066  0.01897217     0.02600
C695        C  0.10302913  0.12407177  0.00852738     0.09400
C696        C  0.07107320  0.10946672  0.92896450     0.35300
C697        C  0.03265117  0.19185865  0.05032869     0.38700
C698        C  0.10309887  0.09920733  0.03224513    -0.04800
C699        C  0.12792667  0.08725884  0.04557131     0.02300
C700        C  0.15293497  0.10041768  0.03605300    -0.04400
C701        C  0.15276266  0.12451417  0.00936101    -0.00700
C702        C  0.12784276  0.13616764  0.99555564    -0.03200
C703        C  0.07750892  0.08592325  0.04292267     0.36000
C704        C  0.17800038  0.13800134  0.99717347     0.39700
C705        C  0.12753236  0.06095026  0.06764684     0.38800
C706        C  0.12757698  0.16070772  0.96800439     0.35700
C707        C  0.08380479  0.16669921  0.06704097     0.36400
C708        C  0.02050613  0.13572468  0.90981725     0.39600
N709        N  0.12682941  0.03986082  0.08487058    -0.38400
N710        N  0.05711638  0.07524304  0.05114297    -0.40000
N711        N  0.19807129  0.14880049  0.98724729    -0.37800
N712        N  0.12723348  0.18018816  0.94578162    -0.40100
N713        N  0.07921948  0.09283458  0.90467097    -0.39900
N714        N  0.00834020  0.13002900  0.87697540    -0.37500
N715        N  0.02553861  0.20827421  0.07589420    -0.38600
N716        N  0.09693662  0.17321612  0.09831463    -0.40300
C717        C  0.22547523  0.01552203  0.87734521    -0.05200
C718        C  0.24911054  0.01847956  0.84988532     0.09000
C719        C  0.26988511  0.03628327  0.86423526    -0.02600
C720        C  0.26784462  0.04953731  0.90729552    -0.00800
C721        C  0.24556961  0.04420240  0.93676945    -0.04500
C722        C  0.22362697  0.02856769  0.92044921     0.02600
C723        C  0.25137359  0.00364665  0.80495982     0.09400
C724        C  0.29359389  0.04047460  0.83512196     0.35300
C725        C  0.19884461  0.02657091  0.94772960     0.38700
C726        C  0.24657097  0.01733454  0.76279813    -0.04800
C727        C  0.24634133  0.00305530  0.72075418     0.02300
C728        C  0.24998021  0.97481566  0.72071290    -0.04400
C729        C  0.25572489  0.96119650  0.76257563    -0.00700
C730        C  0.25671448  0.97563495  0.80461462    -0.03200
C731        C  0.24063864  0.04597504  0.76294575     0.36000
C732        C  0.26003774  0.93229184  0.76236989     0.39700
C733        C  0.24170450  0.01752459  0.67765793     0.38800
C734        C  0.26252094  0.96162631  0.84772213     0.35700
C735        C  0.20317730  0.99882009  0.86140087     0.36400
C736        C  0.28841837  0.06881783  0.92092536     0.39600
N737        N  0.23823760  0.02958925  0.64373861    -0.38400
N738        N  0.23584893  0.06880293  0.76315098    -0.40000
N739        N  0.26350483  0.90922870  0.76207418    -0.37800
N740        N  0.26712036  0.95048453  0.88217842    -0.40100
N741        N  0.31246366  0.04383988  0.81176096    -0.39900
N742        N  0.30458574  0.08468928  0.93096385    -0.37500
N743        N  0.17903073  0.02532290  0.96937485    -0.38600
N744        N  0.18544365  0.98542585  0.84867498    -0.40300
C745        C  0.23990327  0.00404040  0.30088589    -0.05200
C746        C  0.25827389  0.98228281  0.30346024     0.09000
C747        C  0.27473219  0.97611203  0.26487641    -0.02600
C748        C  0.27207314  0.99106501  0.22315870    -0.00800
C749        C  0.25285537  0.01233765  0.21998003    -0.04500
C750        C  0.23761487  0.01934045  0.25994875     0.02600
C751        C  0.26109580  0.96746338  0.34853072     0.09400
C752        C  0.29413394  0.95416928  0.26809490     0.35300
C753        C  0.21970701  0.04264493  0.25985017     0.38700
C754        C  0.24586192  0.94389630  0.35740233    -0.04800
C755        C  0.24382454  0.93348233  0.40304746     0.02300
C756        C  0.25620485  0.94726214  0.44038932    -0.04400
C757        C  0.27220608  0.97051160  0.43070632    -0.00700
C758        C  0.27538899  0.97981456  0.38486457    -0.03200
C759        C  0.23122986  0.93117172  0.31979447     0.36000
C760        C  0.28490419  0.98568219  0.46776609     0.39700
C761        C  0.22725169  0.90981622  0.41169176     0.38800
C762        C  0.29259736  0.00293166  0.37499748     0.35700
C763        C  0.22292473  0.01054191  0.34051983     0.36400
C764        C  0.28866702  0.98401003  0.18347077     0.39600
N765        N  0.21396911  0.89092992  0.41831114    -0.38400
N766        N  0.21953254  0.92108011  0.28973865    -0.40000
N767        N  0.29494102  0.99797429  0.49711671    -0.37800
N768        N  0.30640732  0.02124526  0.36688078    -0.40100
N769        N  0.30957557  0.93660716  0.27068326    -0.39900
N770        N  0.30205659  0.97846904  0.15190525    -0.37500
N771        N  0.20530800  0.06109706  0.26071452    -0.38600
N772        N  0.20923625  0.01579933  0.37183493    -0.40300
C773        C  0.95265451  0.13820253  0.44920234    -0.05200
C774        C  0.94395406  0.13223477  0.49478250     0.09000
C775        C  0.95968320  0.14105802  0.53280240    -0.02600
C776        C  0.98391769  0.15571501  0.52528346    -0.00800
C777        C  0.99214633  0.16227394  0.47981072    -0.04500
C778        C  0.97661897  0.15333345  0.44173899     0.02600
C779        C  0.91805544  0.11691536  0.50309082     0.09400
C780        C  0.95086911  0.13502035  0.57969030     0.35300
C781        C  0.98567809  0.15920180  0.39487378     0.38700
C782        C  0.91887412  0.08934025  0.51525394    -0.04800
C783        C  0.89470752  0.07561250  0.52760194     0.02300
C784        C  0.86944102  0.08930936  0.52736293    -0.04400
C785        C  0.86854901  0.11666444  0.51312473    -0.00700
C786        C  0.89277002  0.13036677  0.50113252    -0.03200
C787        C  0.94474341  0.07524099  0.51559071     0.36000
C788        C  0.84299383  0.13134969  0.51353342     0.39700
C789        C  0.89585985  0.04733006  0.54041221     0.38800
C790        C  0.89186097  0.15865972  0.48828860     0.35700
C791        C  0.93716706  0.12836147  0.41004376     0.36400
C792        C  0.00076029  0.16360718  0.56420665     0.39600
N793        N  0.89678324  0.02476342  0.55061080    -0.38400
N794        N  0.96544361  0.06409084  0.51579287    -0.40000
N795        N  0.82267776  0.14317464  0.51391746    -0.37800
N796        N  0.89122376  0.18122010  0.47799380    -0.40100
N797        N  0.94378842  0.13015448  0.61706680    -0.39900
N798        N  0.01442107  0.16976174  0.59504042    -0.37500
N799        N  0.99296832  0.16379338  0.35750645    -0.38600
N800        N  0.92486711  0.12043660  0.37877116    -0.40300
C801        C  0.01543937  0.24975803  0.66762278    -0.05200
C802        C  0.02641252  0.23525619  0.70519430     0.09000
C803        C  0.05070036  0.22043008  0.69923024    -0.02600
C804        C  0.06323965  0.21898746  0.65518060    -0.00800
C805        C  0.05090452  0.23154002  0.61633472    -0.04500
C806        C  0.02699779  0.24731467  0.62317611     0.02600
C807        C  0.01047931  0.23275927  0.74926468     0.09400
C808        C  0.06196558  0.20550195  0.73809349     0.35300
C809        C  0.01337468  0.26045679  0.58451442     0.38700
C810        C  0.98804676  0.21505307  0.75110891    -0.04800
C811        C  0.97483129  0.20984604  0.79353529     0.02300
C812        C  0.98284237  0.22363280  0.83419115    -0.04400
C813        C  0.00398436  0.24301470  0.83136743    -0.00700
C814        C  0.01806501  0.24715260  0.78918579    -0.03200
C815        C  0.97864664  0.20198695  0.70915048     0.36000
C816        C  0.01239433  0.25767259  0.87226941     0.39700
C817        C  0.95338163  0.18974282  0.79502901     0.38800
C818        C  0.04071037  0.26584646  0.78689301     0.35700
C819        C  0.99147959  0.26642370  0.67456369     0.36400
C820        C  0.08766891  0.20290784  0.64956168     0.39600
N821        N  0.93660279  0.17337780  0.79562331    -0.38400
N822        N  0.97088201  0.19194152  0.67557351    -0.40000
N823        N  0.01906985  0.26945694  0.90482826    -0.37800
N824        N  0.05887250  0.28065997  0.78503182    -0.40100
N825        N  0.07081159  0.19357850  0.76920734    -0.39900
N826        N  0.10718015  0.19007579  0.64526810    -0.37500
N827        N  0.00226699  0.27085495  0.55388403    -0.38600
N828        N  0.97242284  0.27974326  0.68013851    -0.40300
C829        C  0.96466687  0.20677629  0.19874035    -0.05200
C830        C  0.98523611  0.22585389  0.20773995     0.09000
C831        C  0.99246300  0.24484017  0.17360560    -0.02600
C832        C  0.98084083  0.24344987  0.12920721    -0.00800
C833        C  0.96133242  0.22328286  0.11882312    -0.04500
C834        C  0.95256998  0.20555435  0.15442820     0.02600
C835        C  0.00093455  0.22483118  0.25187434     0.09400
C836        C  0.01256016  0.26539284  0.18400974     0.35300
C837        C  0.93245649  0.18491810  0.14504339     0.38700
C838        C  0.02682265  0.21248409  0.25262762    -0.04800
C839        C  0.04185188  0.21138608  0.29405655     0.02300
C840        C  0.03110458  0.22274873  0.33494648    -0.04400
C841        C  0.00552368  0.23585033  0.33378521    -0.00700
C842        C  0.99044433  0.23678070  0.29227787    -0.03200
C843        C  0.03777039  0.20041639  0.21087368     0.36000
C844        C  0.99390337  0.24696715  0.37576833     0.39700
C845        C  0.06831896  0.19831312  0.29462306     0.38800
C846        C  0.96381114  0.24940720  0.29121844     0.35700
C847        C  0.95662700  0.18788641  0.23476740     0.36400
C848        C  0.99017210  0.26219384  0.09392205     0.39600
N849        N  0.08936899  0.18781491  0.29485804    -0.38400
N850        N  0.04659842  0.19077881  0.17767998    -0.40000
N851        N  0.98454621  0.25583098  0.40919392    -0.37800
N852        N  0.94247669  0.25930193  0.29022902    -0.40100
N853        N  0.02854982  0.28175887  0.19244708    -0.39900
N854        N  0.99856917  0.27690904  0.06619481    -0.37500
N855        N  0.91640892  0.16838036  0.13800166    -0.38600
N856        N  0.95017379  0.17291856  0.26364158    -0.40300
C857        C  0.22274110  0.13720146  0.27353205    -0.05200
C858        C  0.20049680  0.15513185  0.27051794     0.09000
C859        C  0.18992265  0.16196955  0.22645512    -0.02600
C860        C  0.19896494  0.14827678  0.18649759    -0.00800
C861        C  0.21895872  0.12792209  0.19039100    -0.04500
C862        C  0.23219599  0.12391231  0.23340978     0.02600
C863        C  0.18398264  0.16152981  0.31290589     0.09400
C864        C  0.16786022  0.18132763  0.22300957     0.35300
C865        C  0.25478152  0.10513487  0.23662164     0.38700
C866        C  0.18987582  0.18371157  0.34168297    -0.04800
C867        C  0.17174997  0.19085883  0.37800824     0.02300
C868        C  0.14731818  0.17623235  0.38469322    -0.04400
C869        C  0.14297928  0.15254097  0.35837603    -0.00700
C870        C  0.16109690  0.14537899  0.32275600    -0.03200
C871        C  0.21425343  0.19938981  0.33321865     0.36000
C872        C  0.11998879  0.13498457  0.36807517     0.39700
C873        C  0.17812686  0.21330295  0.40791790     0.38800
C874        C  0.15583347  0.12152270  0.29520667     0.35700
C875        C  0.23439226  0.13084760  0.31840427     0.36400
C876        C  0.18566297  0.15322371  0.14243278     0.39600
N877        N  0.18353725  0.23096857  0.43223010    -0.38400
N878        N  0.23378923  0.21183454  0.32645850    -0.40000
N879        N  0.10180581  0.12074209  0.37530829    -0.37800
N880        N  0.15167673  0.10258210  0.27311613    -0.40100
N881        N  0.15019696  0.19669540  0.22044630    -0.39900
N882        N  0.17490916  0.15719156  0.10737926    -0.37500
N883        N  0.27285082  0.09022000  0.23898866    -0.38600
N884        N  0.24365721  0.12574824  0.35427150    -0.40300
C885        C  0.17367892  0.04544975  0.53247816    -0.05200
C886        C  0.15518230  0.05438124  0.56649837     0.09000
C887        C  0.15135235  0.03922198  0.60743166    -0.02600
C888        C  0.16593538  0.01506818  0.61428128    -0.00800
C889        C  0.18443654  0.00607077  0.58013969    -0.04500
C890        C  0.18821263  0.02130446  0.53923187     0.02600
C891        C  0.13963127  0.07980555  0.55881978     0.09400
C892        C  0.13264500  0.04875734  0.64263242     0.35300
C893        C  0.20634189  0.01172410  0.50330675     0.38700
C894        C  0.11302449  0.07882187  0.54063702    -0.04800
C895        C  0.09914638  0.10286386  0.52975489     0.02300
C896        C  0.11211302  0.12801322  0.53595068    -0.04400
C897        C  0.13834994  0.12895122  0.55623448    -0.00700
C898        C  0.15204101  0.10485458  0.56755438    -0.03200
C899        C  0.10048583  0.05299197  0.53108461     0.36000
C900        C  0.15215999  0.15449441  0.56273462     0.39700
C901        C  0.07153897  0.10169995  0.51192653     0.38800
C902        C  0.17950063  0.10570824  0.58605142     0.35700
C903        C  0.17770097  0.06116656  0.49045996     0.36400
C904        C  0.16250751  0.99995036  0.65708256     0.39600
N905        N  0.04950043  0.10080948  0.49783330    -0.38400
N906        N  0.09061093  0.03235900  0.52321358    -0.40000
N907        N  0.16327052  0.17480615  0.56798389    -0.37800
N908        N  0.20147676  0.10632126  0.60045573    -0.40100
N909        N  0.11770768  0.05647612  0.67061215    -0.39900
N910        N  0.15978486  0.98793881  0.69126410    -0.37500
N911        N  0.22063119  0.00419442  0.47427419    -0.38600
N912        N  0.18098228  0.07376787  0.45705738    -0.40300
C913        C  0.12470061  0.64279313  0.00784736    -0.05200
C914        C  0.15341880  0.64295476  0.00536197     0.09000
C915        C  0.16678609  0.66593504  0.98756193    -0.02600
C916        C  0.15191042  0.68950509  0.97702182    -0.00800
C917        C  0.12331246  0.69028605  0.98353099    -0.04500
C918        C  0.10962315  0.66626515  0.99634286     0.02600
C919        C  0.17005624  0.61988208  0.02419953     0.09400
C920        C  0.19610699  0.66550751  0.98119217     0.35300
C921        C  0.08019239  0.66597283  0.00005149     0.38700
C922        C  0.17496532  0.59675664  0.99730966    -0.04800
C923        C  0.19425541  0.57729174  0.01206258     0.02300
C924        C  0.20898167  0.58088817  0.05376051    -0.04400
C925        C  0.20225351  0.60296988  0.08242810    -0.00700
C926        C  0.18300856  0.62237430  0.06764118    -0.03200
C927        C  0.16131891  0.59383082  0.95306511     0.36000
C928        C  0.21588814  0.60620721  0.12664926     0.39700
C929        C  0.20019940  0.55478038  0.98216444     0.38800
C930        C  0.17744737  0.64573934  0.09609698     0.35700
C931        C  0.11082301  0.61874176  0.02393059     0.36400
C932        C  0.16633199  0.71300080  0.95968221     0.39600
N933        N  0.20422046  0.53711502  0.95718066    -0.38400
N934        N  0.15043544  0.59148244  0.91776050    -0.40000
N935        N  0.22679017  0.60874496  0.16190017    -0.37800
N936        N  0.17299993  0.66451614  0.11844682    -0.40100
N937        N  0.21947375  0.66518853  0.97600733    -0.39900
N938        N  0.17833667  0.73143433  0.94588994    -0.37500
N939        N  0.05668675  0.66565960  0.00288728    -0.38600
N940        N  0.09986998  0.59944077  0.03669640    -0.40300
C941        C  0.34616110  0.85714663  0.59317724    -0.05200
C942        C  0.35842459  0.85887651  0.54898365     0.09000
C943        C  0.35337148  0.88153405  0.52069831    -0.02600
C944        C  0.33309663  0.90020398  0.53330324    -0.00800
C945        C  0.31825995  0.89654628  0.57484956    -0.04500
C946        C  0.32661962  0.87645022  0.60650754     0.02600
C947        C  0.37377975  0.83548079  0.52961476     0.09400
C948        C  0.36777520  0.88452186  0.47703246     0.35300
C949        C  0.31460775  0.87552350  0.65240289     0.38700
C950        C  0.36057420  0.81789520  0.49856277    -0.04800
C951        C  0.37428626  0.79507964  0.48149788     0.02300
C952        C  0.40129122  0.78960930  0.49539281    -0.04400
C953        C  0.41502898  0.80809760  0.52436955    -0.00700
C954        C  0.40120638  0.83090884  0.54159556    -0.03200
C955        C  0.33254100  0.82294295  0.48514384     0.36000
C956        C  0.44281754  0.80289543  0.53888405     0.39700
C957        C  0.36054712  0.77708134  0.44971778     0.38800
C958        C  0.41485875  0.84931159  0.57273352     0.35700
C959        C  0.35227972  0.83465606  0.62364554     0.36400
C960        C  0.32629780  0.92169509  0.50136684     0.39600
N961        N  0.34965073  0.76277752  0.42422325    -0.38400
N962        N  0.31020772  0.82707517  0.47446347    -0.40000
N963        N  0.46498956  0.79884945  0.55058556    -0.37800
N964        N  0.42561490  0.86399476  0.59776416    -0.40100
N965        N  0.37926911  0.88685579  0.44222450    -0.39900
N966        N  0.32178039  0.93855255  0.47469569    -0.37500
N967        N  0.30523203  0.87517252  0.68920376    -0.38600
N968        N  0.35697225  0.81674101  0.64820191    -0.40300
C969        C  0.36384732  0.66486162  0.28647305    -0.05200
C970        C  0.33541532  0.66493802  0.29240489     0.09000
C971        C  0.32436384  0.67641202  0.33306908    -0.02600
C972        C  0.34174555  0.68582884  0.36892874    -0.00800
C973        C  0.37041698  0.68303595  0.36497624    -0.04500
C974        C  0.38117546  0.67233118  0.32292254     0.02600
C975        C  0.31845617  0.64858307  0.25922411     0.09400
C976        C  0.29506156  0.67788266  0.33834560     0.35300
C977        C  0.41010773  0.66706303  0.31682447     0.38700
C978        C  0.31061510  0.62230756  0.27221047    -0.04800
C979        C  0.30313055  0.60323040  0.23829739     0.02300
C980        C  0.30358172  0.61006821  0.19007989    -0.04400
C981        C  0.30865634  0.63751529  0.17798386    -0.00700
C982        C  0.31564114  0.65656604  0.21247603    -0.03200
C983        C  0.31199615  0.61429353  0.32068012     0.36000
C984        C  0.30867012  0.64624774  0.12996165     0.39700
C985        C  0.29667301  0.57616732  0.25416194     0.38800
C986        C  0.32176827  0.68420739  0.19960698     0.35700
C987        C  0.37566935  0.65645489  0.24276440     0.36400
C988        C  0.32989352  0.69618220  0.41123256     0.39600
N989        N  0.29214258  0.55464465  0.26770301    -0.38400
N990        N  0.31298796  0.60798087  0.35932109    -0.40000
N991        N  0.30894496  0.65333595  0.09167540    -0.37800
N992        N  0.32679440  0.70623136  0.18942351    -0.40100
N993        N  0.27165908  0.67903835  0.34258915    -0.39900
N994        N  0.32037572  0.70433691  0.44507539    -0.37500
N995        N  0.43291223  0.66214751  0.31117522    -0.38600
N996        N  0.38557214  0.65068346  0.20784343    -0.40300
C997        C  0.15238936  0.31490180  0.47596846    -0.05200
C998        C  0.14676187  0.32981541  0.51641478     0.09000
C999        C  0.12134938  0.32657518  0.53849104    -0.02600
C1000       C  0.10304615  0.30642112  0.52352816    -0.00800
C1001       C  0.11002035  0.28940212  0.48610801    -0.04500
C1002       C  0.13380357  0.29523924  0.46035528     0.02600
C1003       C  0.16814775  0.34793045  0.53670785     0.09400
C1004       C  0.11451281  0.34339123  0.57777997     0.35300
C1005       C  0.13902894  0.28096637  0.41753003     0.38700
C1006       C  0.17335001  0.37348170  0.51706097    -0.04800
C1007       C  0.19579607  0.38891488  0.53226659     0.02300
C1008       C  0.21381992  0.37842568  0.56633773    -0.04400
C1009       C  0.20648878  0.35441761  0.58984643    -0.00700
C1010       C  0.18390859  0.33911425  0.57483809    -0.03200
C1011       C  0.15602568  0.38346987  0.48009286     0.36000
C1012       C  0.22150237  0.34608054  0.63070311     0.39700
C1013       C  0.20070714  0.41510059  0.51129278     0.38800
C1014       C  0.17724634  0.31391951  0.59790229     0.35700
C1015       C  0.17789362  0.31886182  0.45159510     0.36400
C1016       C  0.07775469  0.30268806  0.54834601     0.39600
N1017       N  0.20453958  0.43602092  0.49462703    -0.38400
N1018       N  0.14222630  0.39136830  0.45049150    -0.40000
N1019       N  0.23305430  0.33975064  0.66397278    -0.37800
N1020       N  0.17175851  0.29388203  0.61635093    -0.40100
N1021       N  0.10905970  0.35680050  0.60910528    -0.39900
N1022       N  0.05761539  0.30059938  0.56880047    -0.37500
N1023       N  0.14287821  0.26982266  0.38303989    -0.38600
N1024       N  0.19825981  0.32184289  0.43203703    -0.40300
C1025       C  0.38188521  0.52369844  0.56866537    -0.05200
C1026       C  0.36967259  0.54311326  0.53964153     0.09000
C1027       C  0.34400188  0.53795910  0.51968981    -0.02600
C1028       C  0.33042358  0.51348230  0.52899787    -0.00800
C1029       C  0.34266055  0.49380214  0.55805529    -0.04500
C1030       C  0.36843018  0.49922973  0.57817703     0.02600
C1031       C  0.38385454  0.56918330  0.53023079     0.09400
C1032       C  0.33167040  0.55787766  0.48924225     0.35300
C1033       C  0.38082322  0.48025146  0.61031388     0.38700
C1034       C  0.39843952  0.57286057  0.48859559    -0.04800
C1035       C  0.41049263  0.59796340  0.47837973     0.02300
C1036       C  0.40805762  0.61953596  0.51000227    -0.04400
C1037       C  0.39469240  0.61530315  0.55283787    -0.00700
C1038       C  0.38250593  0.59022662  0.56278833    -0.03200
C1039       C  0.40049480  0.55087483  0.45586275     0.36000
C1040       C  0.39370553  0.63666079  0.58693058     0.39700
C1041       C  0.42411566  0.60184334  0.43419558     0.38800
C1042       C  0.36812902  0.58614993  0.60619924     0.35700
C1043       C  0.40843118  0.52899981  0.58869929     0.36400
C1044       C  0.30412493  0.50853538  0.50776098     0.39600
N1045       N  0.43498050  0.60487361  0.39894868    -0.38400
N1046       N  0.40204828  0.53329794  0.42982229    -0.40000
N1047       N  0.39298943  0.65362730  0.61424730    -0.37800
N1048       N  0.35669424  0.58281956  0.64083599    -0.40100
N1049       N  0.32192540  0.57371517  0.46477376    -0.39900
N1050       N  0.28313242  0.50471387  0.49081403    -0.37500
N1051       N  0.39076720  0.46519130  0.63598055    -0.38600
N1052       N  0.42960025  0.53330276  0.60460612    -0.40300
C1053       C  0.24852909  0.48771088  0.28891705    -0.05200
C1054       C  0.26117671  0.46224110  0.29374269     0.09000
C1055       C  0.27146606  0.44914227  0.25424381    -0.02600
C1056       C  0.27064217  0.46211686  0.21077992    -0.00800
C1057       C  0.26100259  0.48885641  0.20699208    -0.04500
C1058       C  0.24853928  0.50106250  0.24549193     0.02600
C1059       C  0.26621631  0.45030543  0.34071759     0.09400
C1060       C  0.28468213  0.42311199  0.25895697     0.35300
C1061       C  0.23697858  0.52780716  0.24072767     0.38700
C1062       C  0.24965278  0.42931047  0.35810201    -0.04800
C1063       C  0.25507479  0.41785232  0.40212112     0.02300
C1064       C  0.27677563  0.42775323  0.42922668    -0.04400
C1065       C  0.29455246  0.44726005  0.41009609    -0.00700
C1066       C  0.28909705  0.45873957  0.36634302    -0.03200
C1067       C  0.22698469  0.41966377  0.33066939     0.36000
C1068       C  0.31932197  0.45446839  0.43449380     0.39700
C1069       C  0.23842565  0.39587472  0.41918025     0.38800
C1070       C  0.30719685  0.47911760  0.34737844     0.35700
C1071       C  0.23686002  0.50070232  0.32913471     0.36400
C1072       C  0.27999605  0.44793820  0.16997675     0.39600
N1073       N  0.22528930  0.37803562  0.43219592    -0.38400
N1074       N  0.20895335  0.41197123  0.30860977    -0.40000
N1075       N  0.33928385  0.45984537  0.45360504    -0.37800
N1076       N  0.32159612  0.49537324  0.33218996    -0.40100
N1077       N  0.29545269  0.40248504  0.26290935    -0.39900
N1078       N  0.28696166  0.43594548  0.13781529    -0.37500
N1079       N  0.22782724  0.54917878  0.23663301    -0.38600
N1080       N  0.22756103  0.51106848  0.36128844    -0.40300
C1081       C  0.29684197  0.46306275  0.79311865    -0.05200
C1082       C  0.28308241  0.48805490  0.79439242     0.09000
C1083       C  0.27037840  0.49788386  0.75379059    -0.02600
C1084       C  0.27171405  0.48302117  0.71213499    -0.00800
C1085       C  0.28575126  0.45813612  0.71077761    -0.04500
C1086       C  0.29790617  0.44804883  0.75176342     0.02600
C1087       C  0.27995467  0.50253785  0.83976319     0.09400
C1088       C  0.25610367  0.52343173  0.75486821     0.35300
C1089       C  0.31084797  0.42175475  0.75193295     0.38700
C1090       C  0.29661993  0.52469394  0.85137778    -0.04800
C1091       C  0.29478595  0.53663641  0.89587833     0.02300
C1092       C  0.27767025  0.52521792  0.93033645    -0.04400
C1093       C  0.26036016  0.50338099  0.91758929    -0.00700
C1094       C  0.26105247  0.49278979  0.87239994    -0.03200
C1095       C  0.31656373  0.53432509  0.81816806     0.36000
C1096       C  0.24225977  0.49072132  0.95107255     0.39700
C1097       C  0.31118261  0.56007639  0.90629255     0.38800
C1098       C  0.24277433  0.47104072  0.85970450     0.35700
C1099       C  0.31014927  0.45283607  0.83448807     0.36400
C1100       C  0.25941488  0.49382436  0.67029292     0.39600
N1101       N  0.32401033  0.57904990  0.91421087    -0.38400
N1102       N  0.33263367  0.54176941  0.79169217    -0.40000
N1103       N  0.22793907  0.48030112  0.97753122    -0.37800
N1104       N  0.22821922  0.45373858  0.84949874    -0.40100
N1105       N  0.24481367  0.54389186  0.75566104    -0.39900
N1106       N  0.24960210  0.50234789  0.63683019    -0.37500
N1107       N  0.32098432  0.40070566  0.75273350    -0.38600
N1108       N  0.32089119  0.44459240  0.86730051    -0.40300
C1109       C  0.35913455  0.09259917  0.01291454    -0.05200
C1110       C  0.36456619  0.11872337  0.02934042     0.09000
C1111       C  0.34917876  0.12903929  0.06651861    -0.02600
C1112       C  0.32712005  0.11422945  0.08478169    -0.00800
C1113       C  0.31961004  0.08926879  0.06494228    -0.04500
C1114       C  0.33693348  0.07770070  0.03097717     0.02600
C1115       C  0.38468490  0.13670731  0.00528197     0.09400
C1116       C  0.35503326  0.15577421  0.08401039     0.35300
C1117       C  0.33108745  0.05130276  0.01209767     0.38700
C1118       C  0.37555824  0.15441433  0.97029291    -0.04800
C1119       C  0.39220693  0.17592995  0.95533618     0.02300
C1120       C  0.41835255  0.17988808  0.97514612    -0.04400
C1121       C  0.42868771  0.15983283  0.00560423    -0.00700
C1122       C  0.41172069  0.13857222  0.02113294    -0.03200
C1123       C  0.34826461  0.15139867  0.95176353     0.36000
C1124       C  0.45610391  0.16160592  0.02346863     0.39700
C1125       C  0.38165113  0.19472266  0.92111176     0.38800
C1126       C  0.42147438  0.11944444  0.05549498     0.35700
C1127       C  0.37540732  0.08180305  0.97541428     0.36400
C1128       C  0.31180822  0.12506231  0.12348700     0.39600
N1129       N  0.37273990  0.20963444  0.89415123    -0.38400
N1130       N  0.32648873  0.14893514  0.93709581    -0.40000
N1131       N  0.47802288  0.16210993  0.03796910    -0.37800
N1132       N  0.42917782  0.10418063  0.08297816    -0.40100
N1133       N  0.35963216  0.17719349  0.09754096    -0.39900
N1134       N  0.29959249  0.13370749  0.15432719    -0.37500
N1135       N  0.32640801  0.03030109  0.99681429    -0.38600
N1136       N  0.38832313  0.07325979  0.94532784    -0.40300
C1137       C  0.32225653  0.30278844  0.71881534    -0.05200
C1138       C  0.34374546  0.31011001  0.74861912     0.09000
C1139       C  0.35986533  0.33277444  0.73797372    -0.02600
C1140       C  0.35368548  0.34889847  0.69931291    -0.00800
C1141       C  0.33033907  0.34338297  0.67197196    -0.04500
C1142       C  0.31565359  0.31930489  0.68019961     0.02600
C1143       C  0.35071935  0.29412277  0.79099126     0.09400
C1144       C  0.38277544  0.33976029  0.76745708     0.35300
C1145       C  0.29408246  0.31132294  0.64898543     0.38700
C1146       C  0.37040765  0.27356745  0.78781630    -0.04800
C1147       C  0.38529447  0.26585848  0.82741350     0.02300
C1148       C  0.38082232  0.27904504  0.87006655    -0.04400
C1149       C  0.35847737  0.29674548  0.87456217    -0.00700
C1150       C  0.34336308  0.30421732  0.83491515    -0.03200
C1151       C  0.37715008  0.26231877  0.74298734     0.36000
C1152       C  0.35274302  0.30937888  0.91867181     0.39700
C1153       C  0.40637473  0.24545942  0.82375816     0.38800
C1154       C  0.32204017  0.32433967  0.83830898     0.35700
C1155       C  0.30686022  0.27850087  0.72833600     0.36400
C1156       C  0.37215325  0.37069117  0.68707516     0.39600
N1157       N  0.42315882  0.22916555  0.82106778    -0.38400
N1158       N  0.38256223  0.25342988  0.70716046    -0.40000
N1159       N  0.34803613  0.31956122  0.95374494    -0.37800
N1160       N  0.30506554  0.34044509  0.84084373    -0.40100
N1161       N  0.40088121  0.34536379  0.79116282    -0.39900
N1162       N  0.38708561  0.38789902  0.67758775    -0.37500
N1163       N  0.27723005  0.30458988  0.62355944    -0.38600
N1164       N  0.29464029  0.25904543  0.73596117    -0.40300
C1165       C  0.36623181  0.42643018  0.10277155    -0.05200
C1166       C  0.36617681  0.41452991  0.05855584     0.09000
C1167       C  0.35043790  0.42594623  0.02260315    -0.02600
C1168       C  0.33500412  0.44939430  0.03067001    -0.00800
C1169       C  0.33499367  0.46137837  0.07487462    -0.04500
C1170       C  0.35084610  0.44991815  0.11087317     0.02600
C1171       C  0.38250657  0.38972589  0.04961566     0.09400
C1172       C  0.35014717  0.41340132  0.97729942     0.35300
C1173       C  0.35093387  0.46198778  0.15656836     0.38700
C1174       C  0.37174204  0.36425047  0.06110531    -0.04800
C1175       C  0.38592752  0.34063741  0.04891981     0.02300
C1176       C  0.41093834  0.34242781  0.02456086    -0.04400
C1177       C  0.42230282  0.36811399  0.01518659    -0.00700
C1178       C  0.40802206  0.39165610  0.02744980    -0.03200
C1179       C  0.34533977  0.36241894  0.08351396     0.36000
C1180       C  0.44871616  0.37043245  0.99287918     0.39700
C1181       C  0.37372598  0.31463634  0.05898390     0.38800
C1182       C  0.41910510  0.41794395  0.01589728     0.35700
C1183       C  0.38195675  0.41429573  0.13995074     0.36400
C1184       C  0.32030878  0.46183823  0.99275279     0.39600
N1185       N  0.36386927  0.29395198  0.06699895    -0.38400
N1186       N  0.32423121  0.36107628  0.10121694    -0.40000
N1187       N  0.46976216  0.37231562  0.97507649    -0.37800
N1188       N  0.42783591  0.43892066  0.00644358    -0.40100
N1189       N  0.35000600  0.40323780  0.94131285    -0.39900
N1190       N  0.30899055  0.47158775  0.96181976    -0.37500
N1191       N  0.35098031  0.47162492  0.19299004    -0.38600
N1192       N  0.39439383  0.40447722  0.16962132    -0.40300
C1193       C  0.89992700  0.32829702  0.02660709    -0.05200
C1194       C  0.87130873  0.32872137  0.02435119     0.09000
C1195       C  0.85755812  0.30757014  0.00189510    -0.02600
C1196       C  0.87209120  0.28503199  0.98529134    -0.00800
C1197       C  0.90085956  0.28329634  0.99096411    -0.04500
C1198       C  0.91471379  0.30618988  0.00867621     0.02600
C1199       C  0.85543419  0.35240119  0.04206174     0.09400
C1200       C  0.82824340  0.30908827  0.99582594     0.35300
C1201       C  0.94410365  0.30796590  0.00679984     0.38700
C1202       C  0.84748530  0.37291539  0.01102528    -0.04800
C1203       C  0.82814169  0.39236778  0.02460335     0.02300
C1204       C  0.81659022  0.39152559  0.06952063    -0.04400
C1205       C  0.82696352  0.37282336  0.10214027    -0.00700
C1206       C  0.84625575  0.35322018  0.08841644    -0.03200
C1207       C  0.85817185  0.37301498  0.96410078     0.36000
C1208       C  0.81727605  0.37351947  0.14958228     0.39700
C1209       C  0.81890901  0.41179087  0.99062830     0.38800
C1210       C  0.85589868  0.33326748  0.12137809     0.35700
C1211       C  0.91412496  0.35075993  0.04753801     0.36400
C1212       C  0.85714636  0.26405491  0.96133171     0.39600
N1213       N  0.81253893  0.42676025  0.96182419    -0.38400
N1214       N  0.86670945  0.37299743  0.92671703    -0.40000
N1215       N  0.80960951  0.37426894  0.18748532    -0.37800
N1216       N  0.86372298  0.31737880  0.14769074    -0.40100
N1217       N  0.80490641  0.31043445  0.99073508    -0.39900
N1218       N  0.84521506  0.24734202  0.94228313    -0.37500
N1219       N  0.96749809  0.31018013  0.00414534    -0.38600
N1220       N  0.92534733  0.36867841  0.06444510    -0.40300
C1221       C  0.57712602  0.32733652  0.95833291    -0.05200
C1222       C  0.57946796  0.34058415  0.00128122     0.09000
C1223       C  0.55798252  0.33892043  0.03374090    -0.02600
C1224       C  0.53427662  0.32409942  0.02325084    -0.00800
C1225       C  0.53207824  0.31064232  0.98046503    -0.04500
C1226       C  0.55348971  0.31244735  0.94790995     0.02600
C1227       C  0.60501219  0.35556402  0.01283127     0.09400
C1228       C  0.56046972  0.35221247  0.07813941     0.35300
C1229       C  0.55081707  0.30003871  0.90280218     0.38700
C1230       C  0.60584896  0.38398545  0.01021194    -0.04800
C1231       C  0.62982293  0.39795813  0.02247945     0.02300
C1232       C  0.65326279  0.38351520  0.03604204    -0.04400
C1233       C  0.65270253  0.35502988  0.03685304    -0.00700
C1234       C  0.62851565  0.34115826  0.02616473    -0.03200
C1235       C  0.58199912  0.39875489  0.99487880     0.36000
C1236       C  0.67678099  0.33980235  0.04982132     0.39700
C1237       C  0.63055628  0.42713564  0.02049266     0.38800
C1238       C  0.62755285  0.31200525  0.03004709     0.35700
C1239       C  0.59905393  0.32921691  0.92473713     0.36400
C1240       C  0.51226215  0.32229740  0.05670995     0.39600
N1241       N  0.63117906  0.45042174  0.01867837    -0.38400
N1242       N  0.56291340  0.41044344  0.98255303    -0.40000
N1243       N  0.69579697  0.32726122  0.05975219    -0.37800
N1244       N  0.62673348  0.28877167  0.03331305    -0.40100
N1245       N  0.56249907  0.36286996  0.11352567    -0.39900
N1246       N  0.49459344  0.32076372  0.08315472    -0.37500
N1247       N  0.54901436  0.29057458  0.86640689    -0.38600
N1248       N  0.61659632  0.33067924  0.89804457    -0.40300
C1249       C  0.66587276  0.08939351  0.52294909    -0.05200
C1250       C  0.66288250  0.11471542  0.54381976     0.09000
C1251       C  0.67797668  0.12080576  0.58397369    -0.02600
C1252       C  0.69873373  0.10316659  0.59905273    -0.00800
C1253       C  0.70478950  0.07973191  0.57342151    -0.04500
C1254       C  0.68635118  0.07161098  0.53846840     0.02600
C1255       C  0.64682013  0.13621533  0.52000726     0.09400
C1256       C  0.67304283  0.14585514  0.60816937     0.35300
C1257       C  0.68825755  0.04537614  0.51749135     0.38700
C1258       C  0.61873065  0.13937677  0.52845944    -0.04800
C1259       C  0.60475376  0.16177498  0.50969153     0.02300
C1260       C  0.61893281  0.18088676  0.48238908    -0.04400
C1261       C  0.64633551  0.17614650  0.47028813    -0.00700
C1262       C  0.66028558  0.15391442  0.48919224    -0.03200
C1263       C  0.60456402  0.12011809  0.55770641     0.36000
C1264       C  0.66038356  0.19464008  0.43935813     0.39700
C1265       C  0.57631628  0.16606429  0.52097809     0.38800
C1266       C  0.68882415  0.14969979  0.47829056     0.35700
C1267       C  0.64897588  0.08244460  0.48354601     0.36400
C1268       C  0.71369649  0.10884745  0.64115418     0.39600
N1269       N  0.55359963  0.16938366  0.52995299    -0.38400
N1270       N  0.59325455  0.10465863  0.58090104    -0.40000
N1271       N  0.67165580  0.20922507  0.41449520    -0.37800
N1272       N  0.71158300  0.14622982  0.46977574    -0.40100
N1273       N  0.66902086  0.16585780  0.62740799    -0.39900
N1274       N  0.72532876  0.11301035  0.67522697    -0.37500
N1275       N  0.68812245  0.02439892  0.50042400    -0.38600
N1276       N  0.63553030  0.07701291  0.45204032    -0.40300
C1277       C  0.47017916  0.32282399  0.52139383    -0.05200
C1278       C  0.45388293  0.33023953  0.48311951     0.09000
C1279       C  0.46252973  0.32384673  0.43789480    -0.02600
C1280       C  0.48752296  0.31041359  0.43086517    -0.00800
C1281       C  0.50419440  0.30343414  0.46913814    -0.04500
C1282       C  0.49535124  0.30970969  0.51446266     0.02600
C1283       C  0.42742111  0.34459384  0.49074391     0.09400
C1284       C  0.44548834  0.33087563  0.39861471     0.35300
C1285       C  0.51258000  0.30367906  0.55395870     0.38700
C1286       C  0.42706886  0.37264880  0.49842089    -0.04800
C1287       C  0.40241082  0.38580769  0.50934563     0.02300
C1288       C  0.37798749  0.37092089  0.51328927    -0.04400
C1289       C  0.37815756  0.34304701  0.50310660    -0.00700
C1290       C  0.40282911  0.32995208  0.49207667    -0.03200
C1291       C  0.45228306  0.38779989  0.49633576     0.36000
C1292       C  0.35327832  0.32740330  0.50645897     0.39700
C1293       C  0.40208385  0.41475151  0.51601118     0.38800
C1294       C  0.40319102  0.30112711  0.48406338     0.35700
C1295       C  0.46081600  0.32853318  0.56801226     0.36400
C1296       C  0.49558362  0.30304351  0.38422109     0.39600
N1297       N  0.40176452  0.43787159  0.52093838    -0.38400
N1298       N  0.47246177  0.39980489  0.49488922    -0.40000
N1299       N  0.33347232  0.31485649  0.50902015    -0.37800
N1300       N  0.40359520  0.27812688  0.47776156    -0.40100
N1301       N  0.43183034  0.33638212  0.36729628    -0.39900
N1302       N  0.50194987  0.29717089  0.34700518    -0.37500
N1303       N  0.52635940  0.29907734  0.58551898    -0.38600
N1304       N  0.45318232  0.33304161  0.60511463    -0.40300
C1305       C  0.53361863  0.23570558  0.66646899    -0.05200
C1306       C  0.54600231  0.25015395  0.70238219     0.09000
C1307       C  0.57031690  0.26442703  0.69388466    -0.02600
C1308       C  0.58222892  0.26429846  0.64920048    -0.00800
C1309       C  0.56875920  0.25137630  0.61176072    -0.04500
C1310       C  0.54384198  0.23746010  0.62113492     0.02600
C1311       C  0.53125637  0.25234409  0.74745954     0.09400
C1312       C  0.58262362  0.27983530  0.73093404     0.35300
C1313       C  0.52696978  0.22644580  0.58450237     0.38700
C1314       C  0.53929470  0.23686864  0.78623039    -0.04800
C1315       C  0.52339635  0.23704465  0.82702311     0.02300
C1316       C  0.49910602  0.25239954  0.82879050    -0.04400
C1317       C  0.49093666  0.26747901  0.78942048    -0.00700
C1318       C  0.50718419  0.26781462  0.74936419    -0.03200
C1319       C  0.56406168  0.22100655  0.78416999     0.36000
C1320       C  0.46568987  0.28273151  0.78973155     0.39700
C1321       C  0.53311576  0.22295764  0.86798311     0.38800
C1322       C  0.49902899  0.28408774  0.70974241     0.35700
C1323       C  0.50939977  0.21974670  0.67612095     0.36400
C1324       C  0.60814603  0.27775661  0.64237483     0.39600
N1325       N  0.54102795  0.21191277  0.90074165    -0.38400
N1326       N  0.58390533  0.20846165  0.78252676    -0.40000
N1327       N  0.44567358  0.29504375  0.78944423    -0.37800
N1328       N  0.49239871  0.29703617  0.67824867    -0.40100
N1329       N  0.59236122  0.29219882  0.76048717    -0.39900
N1330       N  0.62883065  0.28853048  0.63716537    -0.37500
N1331       N  0.51300490  0.21789328  0.55583681    -0.38600
N1332       N  0.49014290  0.20709590  0.68399366    -0.40300
C1333       C  0.53367078  0.25717465  0.24380409    -0.05200
C1334       C  0.51282914  0.23775933  0.24338591     0.09000
C1335       C  0.50882592  0.22084771  0.28198746    -0.02600
C1336       C  0.52550220  0.22355490  0.32150250    -0.00800
C1337       C  0.54499158  0.24474478  0.32400442    -0.04500
C1338       C  0.54925873  0.26118175  0.28399786     0.02600
C1339       C  0.49642868  0.23456946  0.20040366     0.09400
C1340       C  0.48731650  0.20084498  0.28104316     0.35300
C1341       C  0.56894736  0.28296023  0.28352959     0.38700
C1342       C  0.50729226  0.21929407  0.16400052    -0.04800
C1343       C  0.49697500  0.22237039  0.11887640     0.02300
C1344       C  0.47438680  0.23965841  0.11027561    -0.04400
C1345       C  0.46228625  0.25347719  0.14789019    -0.00700
C1346       C  0.47340651  0.25095075  0.19280283    -0.03200
C1347       C  0.53033994  0.20161982  0.17273585     0.36000
C1348       C  0.44026179  0.27243700  0.14002031     0.39700
C1349       C  0.51124545  0.20910906  0.08129818     0.38800
C1350       C  0.46215931  0.26630831  0.23092848     0.35700
C1351       C  0.53897147  0.27321138  0.20241225     0.36400
C1352       C  0.52286880  0.20389286  0.35865371     0.39600
N1353       N  0.52338873  0.19903631  0.05168978    -0.38400
N1354       N  0.54866102  0.18752151  0.17984914    -0.40000
N1355       N  0.42286746  0.28780514  0.13403472    -0.37800
N1356       N  0.45324228  0.27850908  0.26143939    -0.40100
N1357       N  0.46998740  0.18506065  0.28042180    -0.46300
N1358       N  0.52089640  0.18802208  0.38801161    -0.37500
N1359       N  0.58445342  0.30049278  0.28271240    -0.38600
N1360       N  0.54324645  0.28573595  0.16924653    -0.40300
C1361       C  0.69951839  0.30408200  0.33693939    -0.05200
C1362       C  0.69115358  0.29632459  0.29213900     0.09000
C1363       C  0.67200211  0.27537205  0.28723317    -0.02600
C1364       C  0.65806092  0.26548246  0.32653125    -0.00800
C1365       C  0.66349116  0.27638040  0.37062948    -0.04500
C1366       C  0.68586026  0.29380673  0.37631726     0.02600
C1367       C  0.69667814  0.31475299  0.25201658     0.09400
C1368       C  0.66479945  0.26600614  0.24136028     0.35300
C1369       C  0.69293056  0.30320703  0.42222480     0.38700
C1370       C  0.72059984  0.31272422  0.22513369    -0.04800
C1371       C  0.72621480  0.33221402  0.19038100     0.02300
C1372       C  0.70793937  0.35381327  0.18282482    -0.04400
C1373       C  0.68300538  0.35443134  0.20733284    -0.00700
C1374       C  0.67761991  0.33526668  0.24212028    -0.03200
C1375       C  0.73939091  0.29073493  0.23348896     0.36000
C1376       C  0.66229440  0.37429186  0.19583922     0.39700
C1377       C  0.75086090  0.33022582  0.16299135     0.38800
C1378       C  0.65246202  0.33695483  0.26837331     0.35700
C1379       C  0.72012214  0.32475224  0.34208672     0.36400
C1380       C  0.63664720  0.24561913  0.32132365     0.39600
N1381       N  0.77038173  0.32843784  0.14073959    -0.38400
N1382       N  0.75437818  0.27311816  0.23997275    -0.40000
N1383       N  0.64559529  0.38989607  0.18668227    -0.37800
N1384       N  0.63236259  0.33843790  0.28911996    -0.40100
N1385       N  0.65906377  0.25857418  0.20470877    -0.39900
N1386       N  0.61963705  0.22968398  0.31723787    -0.37500
N1387       N  0.69851574  0.31071710  0.45889441    -0.38600
N1388       N  0.73649130  0.34134991  0.34593268    -0.40300
C1389       C  0.85453875  0.60028830  0.55018888    -0.05200
C1390       C  0.85246874  0.62730140  0.53511494     0.09000
C1391       C  0.82691146  0.64008756  0.53581556    -0.02600
C1392       C  0.80341179  0.62603490  0.55040305    -0.00800
C1393       C  0.80492644  0.59834496  0.56436419    -0.04500
C1394       C  0.83100170  0.58580799  0.56449526     0.02600
C1395       C  0.87722768  0.64376034  0.52270259     0.09400
C1396       C  0.82491662  0.66823556  0.52191598     0.35300
C1397       C  0.83403975  0.55817896  0.58023732     0.38700
C1398       C  0.88420416  0.64877727  0.47586804    -0.04800
C1399       C  0.90290443  0.66952694  0.46421998     0.02300
C1400       C  0.91473123  0.68540157  0.49927269    -0.04400
C1401       C  0.90910344  0.67898310  0.54624424    -0.00700
C1402       C  0.89055776  0.65826591  0.55778661    -0.03200
C1403       C  0.87096052  0.63354329  0.43966255     0.36000
C1404       C  0.92053719  0.69479679  0.58340106     0.39700
C1405       C  0.90912176  0.67540972  0.41612817     0.38800
C1406       C  0.88345273  0.65323888  0.60594528     0.35700
C1407       C  0.88109077  0.58756169  0.55159277     0.36400
C1408       C  0.77782948  0.64074757  0.55005839     0.39600
N1409       N  0.91425819  0.68019463  0.37781473    -0.38400
N1410       N  0.86033362  0.62135874  0.41079383    -0.40000
N1411       N  0.92860319  0.70658898  0.61496311    -0.37800
N1412       N  0.87761724  0.64928598  0.64424557    -0.40100
N1413       N  0.82343842  0.69064264  0.51089889    -0.39900
N1414       N  0.75766942  0.65285294  0.54980745    -0.37500
N1415       N  0.83652761  0.53610567  0.59267938    -0.38600
N1416       N  0.90232747  0.57747175  0.55291842    -0.40300
C1417       C  0.68148121  0.42317378  0.57580421    -0.05200
C1418       C  0.65805045  0.42395793  0.54761914     0.09000
C1419       C  0.64830847  0.44883376  0.53075917    -0.02600
C1420       C  0.66243268  0.47279187  0.54063715    -0.00800
C1421       C  0.68573484  0.47228485  0.56966698    -0.04500
C1422       C  0.69514505  0.44725014  0.58727367     0.02600
C1423       C  0.64506620  0.39841593  0.53180480     0.09400
C1424       C  0.62377718  0.44963054  0.50275531     0.35300
C1425       C  0.71846955  0.44607821  0.61796984     0.38700
C1426       C  0.62711821  0.38393286  0.56098570    -0.04800
C1427       C  0.61531858  0.35967847  0.54548290     0.02300
C1428       C  0.62147438  0.34995907  0.50090538    -0.04400
C1429       C  0.63872086  0.36487686  0.47130437    -0.00700
C1430       C  0.65055178  0.38898126  0.48674572    -0.03200
C1431       C  0.62079197  0.39404605  0.60675292     0.36000
C1432       C  0.64452252  0.35539497  0.42493910     0.39700
C1433       C  0.59657124  0.34489149  0.57495395     0.38800
C1434       C  0.66854449  0.40409226  0.45630741     0.35700
C1435       C  0.69161803  0.39746141  0.59267990     0.36400
C1436       C  0.65359781  0.49773498  0.51879125     0.39600
N1437       N  0.58141013  0.33319878  0.59825564    -0.38400
N1438       N  0.61573551  0.40209841  0.64331727    -0.40000
N1439       N  0.64928910  0.34823648  0.38774985    -0.37800
N1440       N  0.68275798  0.41625692  0.43200754    -0.40100
N1441       N  0.60416581  0.45014517  0.48054265    -0.39900
N1442       N  0.64662815  0.51752325  0.50103428    -0.37500
N1443       N  0.73707058  0.44487674  0.64249432    -0.38600
N1444       N  0.69962927  0.37693207  0.60612013    -0.40300
C1445       C  0.59209173  0.59849063  0.54723179    -0.05200
C1446       C  0.59384569  0.62315309  0.52314416     0.09000
C1447       C  0.61894289  0.63192375  0.50506638    -0.02600
C1448       C  0.64261658  0.61655881  0.51238725    -0.00800
C1449       C  0.64135273  0.59229309  0.53866215    -0.04500
C1450       C  0.61569075  0.58290714  0.55460873     0.02600
C1451       C  0.56886141  0.63906809  0.51311406     0.09400
C1452       C  0.62036577  0.65714586  0.47939466     0.35300
C1453       C  0.61329800  0.55703109  0.57795508     0.38700
C1454       C  0.55963966  0.65876366  0.54430779    -0.04800
C1455       C  0.53684883  0.67488526  0.53311708     0.02300
C1456       C  0.52284464  0.67103704  0.49053791    -0.04400
C1457       C  0.53316744  0.65155849  0.45869548    -0.00700
C1458       C  0.55565492  0.63546937  0.47054056    -0.03200
C1459       C  0.57367084  0.66225232  0.58811483     0.36000
C1460       C  0.52144795  0.64798305  0.41287788     0.39700
C1461       C  0.52831677  0.69537395  0.56569111     0.38800
C1462       C  0.56539393  0.61496784  0.43875958     0.35700
C1463       C  0.56594089  0.58933908  0.56465879     0.36400
C1464       C  0.66820060  0.62657247  0.49387224     0.39600
N1465       N  0.52185161  0.71180005  0.59179908    -0.38400
N1466       N  0.58485538  0.66490322  0.62307771    -0.40000
N1467       N  0.51218942  0.64491176  0.37640845    -0.37800
N1468       N  0.57317383  0.59858720  0.41362739    -0.40100
N1469       N  0.62142761  0.67726278  0.45900663    -0.39900
N1470       N  0.68845922  0.63466649  0.47873775    -0.37500
N1471       N  0.61129995  0.53640243  0.59655642    -0.38600
N1472       N  0.54506124  0.58216108  0.57864000    -0.40300
C1473       C  0.76332036  0.51186824  0.26624278    -0.05200
C1474       C  0.75399690  0.50043241  0.30818095     0.09000
C1475       C  0.74507843  0.47340238  0.30906175    -0.02600
C1476       C  0.74364838  0.45848490  0.26768868    -0.00800
C1477       C  0.75156540  0.47036395  0.22519424    -0.04500
C1478       C  0.76214361  0.49688219  0.22479362     0.02600
C1479       C  0.75259856  0.51687067  0.35150809     0.09400
C1480       C  0.73704573  0.46110195  0.35267420     0.35300
C1481       C  0.77030701  0.50937678  0.18141044     0.38700
C1482       C  0.72814959  0.53012194  0.36357765    -0.04800
C1483       C  0.72518270  0.54179312  0.40784712     0.02300
C1484       C  0.74684140  0.54057747  0.43991496    -0.04400
C1485       C  0.77200355  0.52924225  0.42632306    -0.00700
C1486       C  0.77482648  0.51731326  0.38233498    -0.03200
C1487       C  0.70578734  0.53096991  0.33081384     0.36000
C1488       C  0.79493701  0.52955573  0.45794583     0.39700
C1489       C  0.69934290  0.55356477  0.42126387     0.38800
C1490       C  0.80031061  0.50471000  0.36922093     0.35700
C1491       C  0.77349761  0.53928061  0.26572691     0.36400
C1492       C  0.73377809  0.43093372  0.26875489     0.39600
N1493       N  0.67863306  0.56286872  0.43170817    -0.38400
N1494       N  0.68803261  0.53171575  0.30449000    -0.40000
N1495       N  0.81331107  0.52987956  0.48300399    -0.37800
N1496       N  0.82062923  0.49465505  0.35862810    -0.40100
N1497       N  0.73082712  0.45137402  0.38764089    -0.39900
N1498       N  0.72593623  0.40895314  0.26967935    -0.37500
N1499       N  0.77683767  0.51943630  0.14687693    -0.38600
N1500       N  0.78168083  0.56113985  0.26547258    -0.40300
C1501       C  0.76904888  0.47687409  0.76956656    -0.05200
C1502       C  0.75226642  0.48305513  0.80771057     0.09000
C1503       C  0.73374725  0.50464738  0.80474022    -0.02600
C1504       C  0.73125527  0.51945738  0.76330858    -0.00800
C1505       C  0.74668298  0.51222026  0.72372009    -0.04500
C1506       C  0.76619233  0.49130974  0.72746457     0.02600
C1507       C  0.75495916  0.46826456  0.85264212     0.09400
C1508       C  0.71711246  0.51153009  0.84461931     0.35300
C1509       C  0.78256288  0.48385389  0.68773210     0.38700
C1510       C  0.77107862  0.47947984  0.88782974    -0.04800
C1511       C  0.76971553  0.46911432  0.93319849     0.02300
C1512       C  0.75265145  0.44675555  0.94360427    -0.04400
C1513       C  0.73763679  0.43458153  0.90750586    -0.00700
C1514       C  0.73861497  0.44552426  0.86221591    -0.03200
C1515       C  0.78825856  0.50255262  0.87750657     0.36000
C1516       C  0.71967881  0.41206416  0.91733178     0.39700
C1517       C  0.78613949  0.48163799  0.96896132     0.38800
C1518       C  0.72174587  0.43430399  0.82590319     0.35700
C1519       C  0.78910087  0.45556550  0.77378604     0.36400
C1520       C  0.71296001  0.54244381  0.76210287     0.39600
N1521       N  0.79937439  0.49160701  0.99724902    -0.38400
N1522       N  0.80187637  0.52096112  0.86908882    -0.40000
N1523       N  0.70527716  0.39412839  0.92498007    -0.37800
N1524       N  0.70819412  0.42541806  0.79698475    -0.40100
N1525       N  0.70393364  0.51689288  0.87652066    -0.39900
N1526       N  0.69832060  0.56072190  0.76224543    -0.37500
N1527       N  0.79561903  0.47785705  0.65601853    -0.38600
N1528       N  0.80516101  0.43861452  0.77737922    -0.40300
C1529       C  0.66249778  0.87871473  0.02031083    -0.05200
C1530       C  0.65856885  0.85209314  0.03620184     0.09000
C1531       C  0.67600981  0.84154023  0.07060998    -0.02600
C1532       C  0.69867169  0.85654911  0.08596975    -0.00800
C1533       C  0.70450658  0.88221836  0.06635706    -0.04500
C1534       C  0.68527807  0.89382834  0.03536122     0.02600
C1535       C  0.63766937  0.83413539  0.01412713     0.09400
C1536       C  0.67123761  0.81462558  0.08877845     0.35300
C1537       C  0.68965410  0.92055801  0.01624397     0.38700
C1538       C  0.64514011  0.81784753  0.97626666    -0.04800
C1539       C  0.62723815  0.79775856  0.96002206     0.02300
C1540       C  0.60205964  0.79305431  0.98253995    -0.04400
C1541       C  0.59343032  0.81136766  0.01700769    -0.00700
C1542       C  0.61125329  0.83175114  0.03287586    -0.03200
C1543       C  0.67201328  0.82065984  0.95593238     0.36000
C1544       C  0.56694492  0.80847547  0.03835078     0.39700
C1545       C  0.63513089  0.78118953  0.92099945     0.38800
C1546       C  0.60303753  0.84934676  0.07029502     0.35700
C1547       C  0.64361703  0.89004394  0.98687397     0.36400
C1548       C  0.71633590  0.84514808  0.12134320     0.39600
N1549       N  0.64139881  0.76807381  0.88973548    -0.38400
N1550       N  0.69354393  0.82282009  0.94003077    -0.40000
N1551       N  0.54578338  0.80694291  0.05570452    -0.37800
N1552       N  0.59649712  0.86338226  0.10019007    -0.40100
N1553       N  0.66741682  0.79314531  0.10316178    -0.39900
N1554       N  0.73051310  0.83603806  0.14938041    -0.37500
N1555       N  0.69311479  0.94182553  0.00068510    -0.38600
N1556       N  0.62842764  0.89897054  0.96025657    -0.40300
C1557       C  0.41144549  0.59249032  0.00093135    -0.05200
C1558       C  0.42338191  0.60961738  0.03401312     0.09000
C1559       C  0.41238551  0.61110718  0.07899743    -0.02600
C1560       C  0.38874299  0.59644579  0.09032304    -0.00800
C1561       C  0.37574820  0.58039696  0.05636801    -0.04500
C1562       C  0.38790060  0.57760008  0.01228139     0.02600
C1563       C  0.44737988  0.62653967  0.02127245     0.09400
C1564       C  0.42525703  0.62815635  0.11330172     0.35300
C1565       C  0.37717883  0.55822997  0.97962587     0.38700
C1566       C  0.44347679  0.65336111  0.00674601    -0.04800
C1567       C  0.46594015  0.66943823  0.99391849     0.02300
C1568       C  0.49285919  0.65882241  0.99610536    -0.04400
C1569       C  0.49652460  0.63183548  0.01218504    -0.00700
C1570       C  0.47382571  0.61581842  0.02405727    -0.03200
C1571       C  0.41605981  0.66424477  0.00437619     0.36000
C1572       C  0.52349954  0.62021154  0.01744178     0.39700
C1573       C  0.46074782  0.69652826  0.97686247     0.38800
C1574       C  0.47756968  0.58806612  0.03895756     0.35700
C1575       C  0.42327877  0.59054417  0.95502289     0.36400
C1576       C  0.37775549  0.59807729  0.13689802     0.39600
N1577       N  0.45646853  0.71808190  0.96319089    -0.38400
N1578       N  0.39416391  0.67282049  0.00259989    -0.40000
N1579       N  0.54489818  0.61070390  0.02159932    -0.37800
N1580       N  0.48046810  0.56590350  0.05060803    -0.40100
N1581       N  0.43563702  0.64182877  0.14040172    -0.39900
N1582       N  0.36890799  0.59858622  0.17405316    -0.37500
N1583       N  0.36900976  0.54237360  0.95390880    -0.38600
N1584       N  0.43280028  0.58912615  0.91842504    -0.40300
C1585       C  0.55051295  0.72060634  0.20256638    -0.05200
C1586       C  0.52676175  0.73612948  0.21017615     0.09000
C1587       C  0.51617506  0.75159791  0.17328914    -0.02600
C1588       C  0.52598707  0.74793311  0.12789746    -0.00800
C1589       C  0.54961458  0.73190519  0.11952821    -0.04500
C1590       C  0.56300590  0.72021251  0.15825153     0.02600
C1591       C  0.51153659  0.73507941  0.25557292     0.09400
C1592       C  0.49445523  0.77083708  0.18195017     0.35300
C1593       C  0.58952975  0.70781633  0.15306089     0.38700
C1594       C  0.52316847  0.74508659  0.29686374    -0.04800
C1595       C  0.50890608  0.74283788  0.33942802     0.02300
C1596       C  0.48203344  0.73231435  0.34040930    -0.04400
C1597       C  0.46908146  0.72690003  0.29784609    -0.00700
C1598       C  0.48428153  0.72582340  0.25656493    -0.03200
C1599       C  0.54971933  0.75783273  0.29550130     0.36000
C1600       C  0.43963966  0.72558516  0.29565742     0.39700
C1601       C  0.52198868  0.75165849  0.38172718     0.38800
C1602       C  0.47177238  0.71480108  0.21522611     0.35700
C1603       C  0.56145721  0.70405145  0.23969683     0.36400
C1604       C  0.51068030  0.76023028  0.09027106     0.39600
N1605       N  0.53237976  0.75896238  0.41536519    -0.38400
N1606       N  0.57089559  0.76804202  0.29436846    -0.40000
N1607       N  0.41611476  0.72576885  0.29335430    -0.37800
N1608       N  0.46182992  0.70597292  0.18229820    -0.40100
N1609       N  0.47716788  0.78614867  0.18891602    -0.39900
N1610       N  0.49786919  0.76966825  0.06068575    -0.37500
N1611       N  0.61106850  0.69858913  0.14934760    -0.38600
N1612       N  0.57008847  0.69072187  0.26926420    -0.40300
C1613       C  0.49904318  0.74337371  0.77058964    -0.05200
C1614       C  0.47970966  0.72299467  0.76118759     0.09000
C1615       C  0.47521677  0.70257758  0.79440078    -0.02600
C1616       C  0.49209338  0.70051567  0.83372860    -0.00800
C1617       C  0.51245541  0.72021530  0.84242810    -0.04500
C1618       C  0.51482811  0.74238946  0.81170233     0.02600
C1619       C  0.46646240  0.72080992  0.71432656     0.09400
C1620       C  0.45358660  0.68308204  0.78720153     0.35300
C1621       C  0.53444164  0.76347339  0.82098713     0.38700
C1622       C  0.47405949  0.69949780  0.68455827    -0.04800
C1623       C  0.46156601  0.69667862  0.64091155     0.02300
C1624       C  0.44312223  0.71635589  0.62488529    -0.04400
C1625       C  0.43523721  0.73751514  0.65445241    -0.00700
C1626       C  0.44618560  0.73923162  0.69969639    -0.03200
C1627       C  0.49562182  0.68105831  0.69806343     0.36000
C1628       C  0.41614950  0.75765009  0.63789643     0.39700
C1629       C  0.46826576  0.67389964  0.61169858     0.38800
C1630       C  0.43669462  0.75992386  0.73104252     0.35700
C1631       C  0.50345708  0.76477166  0.73704576     0.36400
C1632       C  0.48868338  0.67737138  0.86413516     0.39600
N1633       N  0.47339147  0.65569311  0.58838428    -0.38400
N1634       N  0.51293595  0.66650614  0.70887240    -0.40000
N1635       N  0.40092932  0.77365621  0.62437523    -0.37800
N1636       N  0.42902583  0.77639917  0.75609416    -0.40100
N1637       N  0.43633561  0.66758098  0.78147487    -0.39900
N1638       N  0.48581417  0.65834273  0.88695750    -0.37500
N1639       N  0.54999413  0.78039679  0.82852166    -0.38600
N1640       N  0.50688294  0.78187136  0.71024703    -0.40300
C1641       C  0.66224936  0.63892821  0.74238923    -0.05200
C1642       C  0.68116774  0.65821315  0.75823091     0.09000
C1643       C  0.70707239  0.65994202  0.73707410    -0.02600
C1644       C  0.71417366  0.64203192  0.70093587    -0.00800
C1645       C  0.69535637  0.62244731  0.68587391    -0.04500
C1646       C  0.66914590  0.62143752  0.70606672     0.02600
C1647       C  0.67290090  0.67622400  0.79737220     0.09400
C1648       C  0.72645392  0.67982618  0.75296094     0.35300
C1649       C  0.64890441  0.60261142  0.68912053     0.38700
C1650       C  0.68004620  0.66946308  0.84336562    -0.04800
C1651       C  0.66448118  0.67945140  0.88079412     0.02300
C1652       C  0.64091532  0.69510668  0.87192226    -0.04400
C1653       C  0.63644977  0.70500396  0.82645596    -0.00700
C1654       C  0.65279348  0.69599311  0.78946992    -0.03200
C1655       C  0.70202262  0.65056704  0.85186388     0.36000
C1656       C  0.61422459  0.72349901  0.81725797     0.39700
C1657       C  0.67149689  0.67171013  0.92782579     0.38800
C1658       C  0.64752507  0.70527110  0.74256524     0.35700
C1659       C  0.63566422  0.63673919  0.76425703     0.36400
C1660       C  0.74107293  0.64312377  0.68034842     0.39600
N1661       N  0.67718746  0.66561360  0.96536410    -0.38400
N1662       N  0.71960346  0.63551512  0.85859473    -0.40000
N1663       N  0.59647581  0.73821043  0.80973554    -0.37800
N1664       N  0.64342197  0.71266219  0.70510821    -0.40100
N1665       N  0.74200326  0.69563215  0.76574878    -0.39900
N1666       N  0.76257100  0.64394517  0.66397053    -0.37500
N1667       N  0.63244663  0.58784617  0.67595762    -0.38600
N1668       N  0.61453086  0.63512573  0.78181955    -0.40300
C1669       C  0.63059383  0.59830156  0.08023474    -0.05200
C1670       C  0.64366375  0.58157210  0.04763768     0.09000
C1671       C  0.64178973  0.58786195  0.00004500    -0.02600
C1672       C  0.62822395  0.61137291  0.98515061    -0.00800
C1673       C  0.61504710  0.62839170  0.01774454    -0.04500
C1674       C  0.61554644  0.62101918  0.06523790     0.02600
C1675       C  0.65901179  0.55686176  0.06271483     0.09400
C1676       C  0.65378839  0.56988710  0.96610325     0.35300
C1677       C  0.59891144  0.63538592  0.09842440     0.38700
C1678       C  0.64492876  0.53409393  0.07952459    -0.04800
C1679       C  0.65916377  0.51018631  0.09054165     0.02300
C1680       C  0.68760646  0.50798227  0.08138391    -0.04400
C1681       C  0.70153526  0.53104359  0.06396117    -0.00700
C1682       C  0.68747535  0.55551915  0.05663585    -0.03200
C1683       C  0.61551689  0.53507244  0.08453828     0.36000
C1684       C  0.73008742  0.52974455  0.05121696     0.39700
C1685       C  0.64415251  0.48824272  0.11205845     0.38800
C1686       C  0.70225922  0.57943264  0.04199297     0.35700
C1687       C  0.63259039  0.59207200  0.12928905     0.36400
C1688       C  0.62834682  0.61782935  0.93599770     0.39600
N1689       N  0.63205238  0.47085720  0.12929902    -0.38400
N1690       N  0.59208515  0.53588024  0.08854818    -0.40000
N1691       N  0.75278803  0.52896507  0.04055054    -0.37800
N1692       N  0.71397731  0.59853868  0.03036667    -0.40100
N1693       N  0.66338513  0.55556992  0.93913411    -0.39900
N1694       N  0.62847711  0.62270443  0.89671829    -0.37500
N1695       N  0.58511269  0.64618682  0.12497576    -0.38600
N1696       N  0.63414722  0.58704414  0.16841630    -0.40300
loop_ 
_geom_bond_atom_site_label_1 
_geom_bond_atom_site_label_2 
_geom_bond_distance 
_geom_bond_site_symmetry_2 
_ccdc_geom_bond_type 
O1           C16   1.267       .  A
O1           Al9   1.885       .  S
C2           O12   1.251       .  A
C2            O3   1.267       .  A
C2         C1589   1.508       .  S
O3           Al5   1.948       .  S
O4            C6   1.258       .  A
O4           Al5   1.913       .  S
Al5          O13   1.867   1_554  S
Al5          O15   1.957   1_554  S
Al5          O14   1.787   1_554  S
C6           O19   1.254   1_554  A
C6         C1673   1.498       .  S
O7           C17   1.265       .  A
O7           Al9   1.880       .  S
O8           C21   1.260       .  A
O8          Al18   1.924       .  S
Al9          O22   1.895       .  S
Al9          O19   1.896       .  S
Al9          O14   1.783       .  S
O10          C17   1.274       .  A
O10         Al18   1.938       .  S
O11          C20   1.268       .  A
O11         Al18   1.948       .  S
O12         Al18   1.859   1_554  S
O13          C20   1.255       .  A
O14         Al18   1.785       .  S
O15          C16   1.276       .  A
C16        C1652   1.493       .  S
C17        C1568   1.503       .  S
C20        C1540   1.495       .  S
C21          O22   1.253       .  A
C21        C1617   1.498       .  S
O23          C38   1.261       .  A
O23         Al31   1.878       .  S
C24          O34   1.258       .  A
C24          O25   1.268       .  A
C24        C1484   1.483       .  S
O25         Al27   1.943       .  S
O26          C28   1.255       .  A
O26         Al27   1.889       .  S
Al27         O35   1.877       .  S
Al27         O37   1.955       .  S
Al27         O36   1.769       .  S
C28          O41   1.257       .  A
C28        C1449   1.488       .  S
O29          C39   1.261       .  A
O29         Al31   1.873       .  S
O30          C43   1.266       .  A
O30         Al40   1.920       .  S
Al31         O44   1.898       .  S
Al31         O41   1.907       .  S
Al31         O36   1.776       .  S
O32          C39   1.273       .  A
O32         Al40   1.952       .  S
O33          C42   1.270       .  A
O33         Al40   1.960       .  S
O34         Al40   1.876       .  S
O35          C42   1.254       .  A
O36         Al40   1.782       .  S
O37          C38   1.271       .  A
C38        C1645   1.484       .  S
C39        C1421   1.491       .  S
C42        C1393   1.518       .  S
C43          O44   1.260       .  A
C43        C1505   1.487       .  S
O45          C60   1.254       .  A
O45         Al53   1.884       .  S
C46          O56   1.266       .  A
C46          O47   1.259       .  A
C46        C1309   1.505       .  S
O47         Al49   1.899       .  S
O48          C50   1.263       .  A
O48         Al49   1.900       .  S
Al49         O57   1.909       .  S
Al49         O59   1.911       .  S
Al49         O58   1.785       .  S
C50          O63   1.265       .  A
C50        C1281   1.488       .  S
O51          C61   1.256       .  A
O51         Al53   1.895       .  S
O52          C65   1.264       .  A
O52         Al62   1.915       .  S
Al53         O66   1.900       .  S
Al53         O63   1.920       .  S
Al53         O58   1.774       .  S
O54          C61   1.257       .  A
O54         Al62   1.900       .  S
O55          C64   1.263       .  A
O55         Al62   1.903       .  S
O56         Al62   1.924       .  S
O57          C64   1.265       .  A
O58         Al62   1.782       .  S
O59          C60   1.258       .  A
C60        C1337   1.501       .  S
C61        C1428   1.472       .  S
C64        C1260   1.475       .  S
C65          O66   1.263       .  A
C65        C1365   1.478       .  S
O67          C82   1.265       .  A
O67         Al75   1.922       .  S
C68          O78   1.272   1_556  A
C68          O69   1.257   1_556  A
C68        C1512   1.489       .  S
O69         Al71   1.864       .  S
O70          C72   1.268       .  A
O70         Al71   1.944       .  S
Al71         O79   1.958       .  S
Al71         O81   1.908       .  S
Al71         O80   1.785       .  S
C72          O85   1.261       .  A
C72        C1680   1.506       .  S
O73          C83   1.259       .  A
O73         Al75   1.916       .  S
O74          C87   1.268       .  A
O74         Al84   1.938       .  S
Al75         O88   1.878       .  S
Al75         O85   1.891       .  S
Al75         O80   1.771       .  S
O76          C83   1.256       .  A
O76         Al84   1.894       .  S
O77          C86   1.254       .  A
O77         Al84   1.880       .  S
O78         Al84   1.950       .  S
O79          C86   1.267       .  A
O80         Al84   1.779       .  S
O81          C82   1.266       .  A
C82        C1477   1.484       .  S
C83        C1232   1.480       .  S
C86        C1204   1.490       .  S
C87          O88   1.261       .  A
C87        C1372   1.485       .  S
O89         C104   1.262       .  A
O89         Al97   1.871       .  S
C90         O100   1.255       .  A
C90          O91   1.267       .  A
C90        C1344   1.490       .  S
O91         Al93   1.934   1_554  S
O92          C94   1.255       .  A
O92         Al93   1.898   1_554  S
Al93        O101   1.866       .  S
Al93        O103   1.953       .  S
Al93        O102   1.779       .  S
C94         O107   1.256   1_554  A
C94        C1176   1.487       .  S
O95         C105   1.264       .  A
O95         Al97   1.888       .  S
O96         C109   1.262       .  A
O96        Al106   1.910       .  S
Al97        O110   1.897       .  S
Al97        O107   1.905       .  S
Al97        O102   1.776       .  S
O98         C105   1.272       .  A
O98        Al106   1.950       .  S
O99         C108   1.268       .  A
O99        Al106   1.953       .  S
O100       Al106   1.863   1_554  S
O101        C108   1.254       .  A
O102       Al106   1.780       .  S
O103        C104   1.273       .  A
C104       C1148   1.482       .  S
C105       C1225   1.480       .  S
C108       C1120   1.500       .  S
C109        O110   1.258       .  A
C109       C1316   1.482       .  S
O111        C126   1.258       .  A
O111       Al119   1.863       .  S
C112        O122   1.260       .  A
C112        O113   1.270       .  A
C112       C1064   1.486       .  S
O113       Al115   1.948       .  S
O114        C116   1.257       .  A
O114       Al115   1.901       .  S
Al115       O123   1.901       .  S
Al115       O125   1.957       .  S
Al115       O124   1.789       .  S
C116        O129   1.259       .  A
C116       C1288   1.487       .  S
O117        C127   1.260       .  A
O117       Al119   1.886       .  S
O118        C131   1.266       .  A
O118       Al128   1.915       .  S
Al119       O132   1.920       .  S
Al119       O129   1.910       .  S
Al119       O124   1.771       .  S
O120        C127   1.266       .  A
O120       Al128   1.934       .  S
O121        C130   1.263       .  A
O121       Al128   1.924       .  S
O122       Al128   1.874       .  S
O123        C130   1.260       .  A
O124       Al128   1.783       .  S
O125        C126   1.271       .  A
C126       C1141   1.492       .  S
C127       C1029   1.489       .  S
C130       C1008   1.500       .  S
C131        O132   1.264       .  A
C131       C1085   1.490       .  S
O133        C148   1.264       .  A
O133       Al141   1.895       .  S
C134        O144   1.266       .  A
C134        O135   1.262       .  A
C134       C1624   1.479       .  S
O135       Al137   1.904       .  S
O136        C138   1.258       .  A
O136       Al137   1.913       .  S
Al137       O145   1.904       .  S
Al137       O147   1.929       .  S
Al137       O146   1.794       .  S
C138        O151   1.249       .  A
C138       C1456   1.501       .  S
O139        C149   1.260       .  A
O139       Al141   1.897       .  S
O140        C153   1.272       .  A
O140       Al150   1.953       .  S
Al141       O154   1.881       .  S
Al141       O151   1.861       .  S
Al141       O146   1.776       .  S
O142        C149   1.262       .  A
O142       Al150   1.915       .  S
O143        C152   1.258       .  A
O143       Al150   1.893       .  S
O144       Al150   1.916       .  S
O145        C152   1.260       .  A
O146       Al150   1.788       .  S
O147        C148   1.266       .  A
C148       C1596   1.500       .  S
C149       C1036   1.483       .  S
C152        C952   1.483       .  S
C153        O154   1.255       .  A
C153        C973   1.508       .  S
O155        C170   1.256       .  A
O155       Al163   1.900       .  S
C156        O166   1.271       .  A
C156        O157   1.252   1_556  A
C156       C1092   1.507       .  S
O157       Al159   1.857       .  S
O158        C160   1.274       .  A
O158       Al159   1.951       .  S
Al159       O167   1.958       .  S
Al159       O169   1.918       .  S
Al159       O168   1.781       .  S
C160        O173   1.261       .  A
C160       C1169   1.481       .  S
O161        C171   1.256       .  A
O161       Al163   1.899       .  S
O162        C175   1.278       .  A
O162       Al172   1.972       .  S
Al163       O176   1.884       .  S
Al163       O173   1.876       .  S
Al163       O168   1.782       .  S
O164        C171   1.257       .  A
O164       Al172   1.903       .  S
O165        C174   1.255       .  A
O165       Al172   1.870       .  S
O166       Al172   1.966   1_556  S
O167        C174   1.270       .  A
O168       Al172   1.780       .  S
O169        C170   1.260       .  A
C170       C1057   1.479       .  S
C171       C1561   1.486       .  S
C174        C924   1.496       .  S
C175        O176   1.264       .  A
C175        C980   1.522       .  S
O177        C192   1.259       .  A
O177       Al185   1.874       .  S
C178        O188   1.255       .  A
C178        O179   1.273       .  A
C178        C805   1.496       .  S
O179       Al181   1.963       .  S
O180        C182   1.258       .  A
O180       Al181   1.894       .  S
Al181       O189   1.881       .  S
Al181       O191   1.976       .  S
Al181       O190   1.778       .  S
C182        O195   1.260       .  A
C182        C896   1.481       .  S
O183        C193   1.259       .  A
O183       Al185   1.883       .  S
O184        C197   1.263       .  A
O184       Al194   1.901       .  S
Al185       O198   1.904       .  S
Al185       O195   1.908       .  S
Al185       O190   1.769       .  S
O186        C193   1.269       .  A
O186       Al194   1.948       .  S
O187        C196   1.269       .  A
O187       Al194   1.956       .  S
O188       Al194   1.860       .  S
O189        C196   1.258       .  A
O190       Al194   1.779       .  S
O191        C192   1.274       .  A
C192        C868   1.497       .  S
C193        C777   1.477   1_455  S
C196       C1001   1.496       .  S
C197        O198   1.261       .  A
C197        C840   1.476       .  S
O199        C214   1.260       .  A
O199       Al207   1.880       .  S
C200        O210   1.259   1_556  A
C200        O201   1.267   1_556  A
C200        C721   1.480       .  S
O201       Al203   1.939       .  S
O202        C204   1.255       .  A
O202       Al203   1.891       .  S
Al203       O211   1.880       .  S
Al203       O213   1.956       .  S
Al203       O212   1.782       .  S
C204        O217   1.259       .  A
C204        C700   1.490       .  S
O205        C215   1.262       .  A
O205       Al207   1.890       .  S
O206        C219   1.265       .  A
O206       Al216   1.920       .  S
Al207       O220   1.904       .  S
Al207       O217   1.912       .  S
Al207       O212   1.774       .  S
O208        C215   1.268       .  A
O208       Al216   1.937       .  S
O209        C218   1.263       .  A
O209       Al216   1.928       .  S
O210       Al216   1.876       .  S
O211        C218   1.258       .  A
O212       Al216   1.781       .  S
O213        C214   1.272       .  A
C214        C861   1.489       .  S
C215        C672   1.488   1_545  S
C218       C1113   1.497       .  S
C219        O220   1.261       .  A
C219        C749   1.494       .  S
O221        C236   1.258       .  A
O221       Al229   1.881       .  S
C222        O232   1.266       .  A
C222        O223   1.268       .  A
C222        C609   1.484       .  S
O223       Al225   1.920   1_554  S
O224        C226   1.262       .  A
O224       Al225   1.908       .  S
Al225       O233   1.924       .  S
Al225       O235   1.908       .  S
Al225       O234   1.786       .  S
C226        O239   1.258       .  A
C226        C553   1.495   1_455  S
O227        C237   1.255   1_556  A
O227       Al229   1.900       .  S
O228        C241   1.263       .  A
O228       Al238   1.901   1_556  S
Al229       O242   1.919       .  S
Al229       O239   1.891       .  S
Al229       O234   1.782       .  S
O230        C237   1.257       .  A
O230       Al238   1.910       .  S
O231        C240   1.258   1_554  A
O231       Al238   1.904       .  S
O232       Al238   1.904       .  S
O233        C240   1.262       .  A
O234       Al238   1.789   1_556  S
O235        C236   1.262       .  A
C236        C644   1.497       .  S
C237        C665   1.496       .  S
C240        C917   1.496       .  S
C241        O242   1.267       .  A
C241        C581   1.476       .  S
O243        C258   1.262       .  A
O243       Al251   1.916       .  S
C244        O254   1.269       .  A
C244        O245   1.255       .  A
C244        C756   1.496       .  S
O245       Al247   1.871       .  S
O246        C248   1.266       .  A
O246       Al247   1.925       .  S
Al247       O255   1.941       .  S
Al247       O257   1.906       .  S
Al247       O256   1.781       .  S
C248        O261   1.259       .  A
C248        C889   1.477   1_565  S
O249        C259   1.262       .  A
O249       Al251   1.918       .  S
O250        C263   1.269       .  A
O250       Al260   1.953       .  S
Al251       O264   1.881       .  S
Al251       O261   1.882       .  S
Al251       O256   1.776       .  S
O252        C259   1.260       .  A
O252       Al260   1.896       .  S
O253        C262   1.259       .  A
O253       Al260   1.880       .  S
O254       Al260   1.951       .  S
O255        C262   1.266       .  A
O256       Al260   1.782       .  S
O257        C258   1.261       .  A
C258        C728   1.479       .  S
C259        C532   1.490       .  S
C262        C945   1.483       .  S
C263        O264   1.260       .  A
C263        C588   1.484       .  S
O265        C280   1.261       .  A
O265       Al273   1.876       .  S
C266        O276   1.254       .  A
C266        O267   1.269       .  A
C266        C637   1.483       .  S
O267       Al269   1.941       .  S
O268        C270   1.253       .  A
O268       Al269   1.888       .  S
Al269       O277   1.887       .  S
Al269       O279   1.971       .  S
Al269       O278   1.777       .  S
C270        O283   1.257       .  A
C270        C497   1.496       .  S
O271        C281   1.263   1_655  A
O271       Al273   1.887       .  S
O272        C285   1.265       .  A
O272       Al282   1.917       .  S
Al273       O286   1.894       .  S
Al273       O283   1.917       .  S
Al273       O278   1.777       .  S
O274        C281   1.270       .  A
O274       Al282   1.942   1_455  S
O275        C284   1.268       .  A
O275       Al282   1.954       .  S
O276       Al282   1.861       .  S
O277        C284   1.258       .  A
O278       Al282   1.785       .  S
O279        C280   1.276       .  A
C280        C469   1.493       .  S
C281        C525   1.486       .  S
C284       C1400   1.494       .  S
C285        O286   1.258       .  A
C285        C616   1.474       .  S
O287        C302   1.262       .  A
O287       Al295   1.882       .  S
C288        O298   1.258   1_556  A
C288        O289   1.265       .  A
C288        C413   1.481       .  S
O289       Al291   1.934   1_556  S
O290        C292   1.256       .  A
O290       Al291   1.896       .  S
Al291       O299   1.875       .  S
Al291       O301   1.954       .  S
Al291       O300   1.787       .  S
C292        O305   1.259       .  A
C292        C560   1.491       .  S
O293        C303   1.263       .  A
O293       Al295   1.893       .  S
O294        C307   1.266       .  A
O294       Al304   1.924       .  S
Al295       O308   1.911       .  S
Al295       O305   1.913       .  S
Al295       O300   1.777       .  S
O296        C303   1.270       .  A
O296       Al304   1.945       .  S
O297        C306   1.267       .  A
O297       Al304   1.944       .  S
O298       Al304   1.877       .  S
O299        C306   1.257       .  A
O300       Al304   1.784       .  S
O301        C302   1.271       .  A
C302        C476   1.491       .  S
C303        C385   1.494       .  S
C306       C1533   1.503       .  S
C307        O308   1.261       .  A
C307        C441   1.500       .  S
O309        C324   1.261       .  A
O309       Al317   1.913       .  S
C310        O320   1.267       .  A
C310        O311   1.257       .  A
C310        C833   1.487       .  S
O311       Al313   1.867   1_554  S
O312        C314   1.270       .  A
O312       Al313   1.941       .  S
Al313       O321   1.938       .  S
Al313       O323   1.909       .  S
Al313       O322   1.781       .  S
C314        O327   1.263       .  A
C314        C693   1.484   1_655  S
O315        C325   1.259   1_556  A
O315       Al317   1.918       .  S
O316        C329   1.272       .  A
O316       Al326   1.953   1_556  S
Al317       O330   1.871       .  S
Al317       O327   1.887       .  S
Al317       O322   1.781       .  S
O318        C325   1.254       .  A
O318       Al326   1.891       .  S
O319        C328   1.255       .  A
O319       Al326   1.875   1_556  S
O320       Al326   1.934       .  S
O321        C328   1.265       .  A
O322       Al326   1.782   1_556  S
O323        C324   1.262       .  A
C324        C812   1.490       .  S
C325        C392   1.491       .  S
C328       C1197   1.511       .  S
C329        O330   1.261       .  A
C329        C357   1.486       .  S
O331        C346   1.263       .  A
O331       Al339   1.925       .  S
C332        O342   1.275       .  A
C332        O333   1.256       .  A
C332        C448   1.501       .  S
O333       Al335   1.865       .  S
O334        C336   1.268       .  A
O334       Al335   1.938   1_565  S
Al335       O343   1.935       .  S
Al335       O345   1.903       .  S
Al335       O344   1.781       .  S
C336        O349   1.258   1_565  A
C336        C504   1.481       .  S
O337        C347   1.262       .  A
O337       Al339   1.924       .  S
O338        C351   1.275       .  A
O338       Al348   1.976       .  S
Al339       O352   1.872       .  S
Al339       O349   1.874       .  S
Al339       O344   1.770       .  S
O340        C347   1.260       .  A
O340       Al348   1.901       .  S
O341        C350   1.260       .  A
O341       Al348   1.891       .  S
O342       Al348   1.971       .  S
O343        C350   1.265       .  A
O344       Al348   1.779       .  S
O345        C346   1.260       .  A
C346        C420   1.478   1_545  S
C347        C784   1.490       .  S
C350       C1253   1.493       .  S
C351        O352   1.259       .  A
C351        C364   1.497       .  S
C353        C354   1.414       .  A
C353        C358   1.413       .  A
C353        C371   1.450       .  S
C354        C359   1.500       .  S
C354        C355   1.410       .  A
C355        C356   1.410       .  A
C355        C360   1.450       .  S
C356        C357   1.414       .  A
C356        C372   1.452       .  S
C357        C358   1.412       .  A
C358        C361   1.449       .  S
C359        C362   1.413       .  A
C359        C366   1.408       .  A
C360        N377   1.157       .  T
C361        N379   1.157       .  T
C362        C363   1.420       .  A
C362        C367   1.448       .  S
C363        C364   1.415       .  A
C363        C369   1.448       .  S
C364        C365   1.420       .  A
C365        C366   1.405       .  A
C365        C368   1.453       .  S
C366        C370   1.454       .  S
C367        N374   1.157       .  T
C368        N375   1.158       .  T
C369        N373   1.157       .  T
C370        N376   1.157       .  T
C371        N380   1.157       .  T
C372        N378   1.157       .  T
C381        C382   1.413       .  A
C381        C386   1.413       .  A
C381        C399   1.452   1_554  S
C382        C387   1.502       .  S
C382        C383   1.410       .  A
C383        C384   1.412       .  A
C383        C388   1.451       .  S
C384        C385   1.419   1_545  A
C384        C400   1.451   1_545  S
C385        C386   1.416   1_565  A
C386        C389   1.451       .  S
C387        C390   1.411       .  A
C387        C394   1.413       .  A
C388        N405   1.157       .  T
C389        N407   1.158   1_554  T
C390        C391   1.410       .  A
C390        C395   1.451       .  S
C391        C392   1.418       .  A
C391        C397   1.451       .  S
C392        C393   1.415       .  A
C393        C394   1.413       .  A
C393        C396   1.451       .  S
C394        C398   1.450       .  S
C395        N402   1.157       .  T
C396        N403   1.158   1_554  T
C397        N401   1.157       .  T
C398        N404   1.157       .  T
C399        N408   1.157       .  T
C400        N406   1.157       .  T
C409        C410   1.411       .  A
C409        C414   1.407       .  A
C409        C427   1.451       .  S
C410        C415   1.497       .  S
C410        C411   1.413       .  A
C411        C412   1.414       .  A
C411        C416   1.450       .  S
C412        C413   1.412       .  A
C412        C428   1.449       .  S
C413        C414   1.411       .  A
C414        C417   1.452       .  S
C415        C418   1.410       .  A
C415        C422   1.414       .  A
C416        N433   1.157       .  T
C417        N435   1.157       .  T
C418        C419   1.408       .  A
C418        C423   1.451       .  S
C419        C420   1.412       .  A
C419        C425   1.451       .  S
C420        C421   1.410   1_565  A
C421        C422   1.413   1_545  A
C421        C424   1.450       .  S
C422        C426   1.450   1_565  S
C423        N430   1.158       .  T
C424        N431   1.158       .  T
C425        N429   1.157       .  T
C426        N432   1.157       .  T
C427        N436   1.157       .  T
C428        N434   1.157       .  T
C437        C438   1.411       .  A
C437        C442   1.411       .  A
C437        C455   1.453       .  S
C438        C443   1.505   1_565  S
C438        C439   1.411   1_565  A
C439        C440   1.419   1_545  A
C439        C444   1.449       .  S
C440        C441   1.419       .  A
C440        C456   1.450       .  S
C441        C442   1.420       .  A
C442        C445   1.452       .  S
C443        C446   1.413       .  A
C443        C450   1.406   1_545  A
C444        N461   1.157       .  T
C445        N463   1.157       .  T
C446        C447   1.419       .  A
C446        C451   1.449       .  S
C447        C448   1.417       .  A
C447        C453   1.450       .  S
C448        C449   1.424       .  A
C449        C450   1.409   1_545  A
C449        C452   1.451   1_545  S
C450        C454   1.452       .  S
C451        N458   1.157       .  T
C452        N459   1.158       .  T
C453        N457   1.158       .  T
C454        N460   1.157       .  T
C455        N464   1.157       .  T
C456        N462   1.157   1_565  T
C465        C466   1.409       .  A
C465        C470   1.406       .  A
C465        C483   1.454       .  S
C466        C471   1.500       .  S
C466        C467   1.413       .  A
C467        C468   1.420       .  A
C467        C472   1.448       .  S
C468        C469   1.414       .  A
C468        C484   1.449       .  S
C469        C470   1.419       .  A
C470        C473   1.452       .  S
C471        C474   1.412       .  A
C471        C478   1.411       .  A
C472        N489   1.157       .  T
C473        N491   1.157       .  T
C474        C475   1.414       .  A
C474        C479   1.451       .  S
C475        C476   1.415       .  A
C475        C481   1.448       .  S
C476        C477   1.414       .  A
C477        C478   1.412       .  A
C477        C480   1.451       .  S
C478        C482   1.449       .  S
C479        N486   1.158       .  T
C480        N487   1.158       .  T
C481        N485   1.156       .  T
C482        N488   1.157       .  T
C483        N492   1.158       .  T
C484        N490   1.158       .  T
C493        C494   1.407       .  A
C493        C498   1.410       .  A
C493        C511   1.452       .  S
C494        C499   1.489       .  S
C494        C495   1.405       .  A
C495        C496   1.408       .  A
C495        C500   1.453       .  S
C496        C497   1.424       .  A
C496        C512   1.452       .  S
C497        C498   1.421       .  A
C498        C501   1.451       .  S
C499        C502   1.410       .  A
C499        C506   1.407       .  A
C500        N517   1.157       .  T
C501        N519   1.158       .  T
C502        C503   1.408       .  A
C502        C507   1.452       .  S
C503        C504   1.413       .  A
C503        C509   1.448       .  S
C504        C505   1.417       .  A
C505        C506   1.407       .  A
C505        C508   1.452       .  S
C506        C510   1.451       .  S
C507        N514   1.157       .  T
C508        N515   1.157       .  T
C509        N513   1.156       .  T
C510        N516   1.157       .  T
C511        N520   1.157       .  T
C512        N518   1.158       .  T
C521        C522   1.409       .  A
C521        C526   1.410       .  A
C521        C539   1.451       .  S
C522        C527   1.495       .  S
C522        C523   1.411       .  A
C523        C524   1.411       .  A
C523        C528   1.451       .  S
C524        C525   1.415       .  A
C524        C540   1.450       .  S
C525        C526   1.417       .  A
C526        C529   1.451       .  S
C527        C530   1.410       .  A
C527        C534   1.408       .  A
C528        N545   1.157       .  T
C529        N547   1.158       .  T
C530        C531   1.410       .  A
C530        C535   1.451       .  S
C531        C532   1.417       .  A
C531        C537   1.452       .  S
C532        C533   1.420       .  A
C533        C534   1.410       .  A
C533        C536   1.451       .  S
C534        C538   1.451       .  S
C535        N542   1.157       .  T
C536        N543   1.157       .  T
C537        N541   1.158       .  T
C538        N544   1.157       .  T
C539        N548   1.157       .  T
C540        N546   1.157       .  T
C549        C550   1.408       .  A
C549        C554   1.410       .  A
C549        C567   1.451       .  S
C550        C555   1.495   1_556  S
C550        C551   1.410   1_556  A
C551        C552   1.412       .  A
C551        C556   1.451       .  S
C552        C553   1.416   1_554  A
C552        C568   1.448       .  S
C553        C554   1.421       .  A
C554        C557   1.452       .  S
C555        C558   1.409   1_554  A
C555        C562   1.409       .  A
C556        N573   1.157       .  T
C557        N575   1.158   1_655  T
C558        C559   1.411   1_556  A
C558        C563   1.451       .  S
C559        C560   1.419       .  A
C559        C565   1.451   1_554  S
C560        C561   1.417       .  A
C561        C562   1.410       .  A
C561        C564   1.451       .  S
C562        C566   1.451       .  S
C563        N570   1.157       .  T
C564        N571   1.157       .  T
C565        N569   1.157       .  T
C566        N572   1.157       .  T
C567        N576   1.157       .  T
C568        N574   1.156   1_655  T
C577        C578   1.413       .  A
C577        C582   1.407       .  A
C577        C595   1.451       .  S
C578        C583   1.494       .  S
C578        C579   1.412       .  A
C579        C580   1.414       .  A
C579        C584   1.449       .  S
C580        C581   1.411       .  A
C580        C596   1.450       .  S
C581        C582   1.409       .  A
C582        C585   1.451       .  S
C583        C586   1.412       .  A
C583        C590   1.409       .  A
C584        N601   1.157       .  T
C585        N603   1.157       .  T
C586        C587   1.417       .  A
C586        C591   1.448       .  S
C587        C588   1.412       .  A
C587        C593   1.448       .  S
C588        C589   1.415       .  A
C589        C590   1.403       .  A
C589        C592   1.451       .  S
C590        C594   1.453       .  S
C591        N598   1.157       .  T
C592        N599   1.157       .  T
C593        N597   1.157       .  T
C594        N600   1.157       .  T
C595        N604   1.157       .  T
C596        N602   1.157       .  T
C605        C606   1.413       .  A
C605        C610   1.414       .  A
C605        C623   1.450       .  S
C606        C611   1.496       .  S
C606        C607   1.409       .  A
C607        C608   1.408       .  A
C607        C612   1.450       .  S
C608        C609   1.413       .  A
C608        C624   1.450       .  S
C609        C610   1.415       .  A
C610        C613   1.451       .  S
C611        C614   1.413       .  A
C611        C618   1.411       .  A
C612        N629   1.157       .  T
C613        N631   1.158       .  T
C614        C615   1.410   1_455  A
C614        C619   1.449   1_455  S
C615        C616   1.409       .  A
C615        C621   1.452       .  S
C616        C617   1.413   1_655  A
C617        C618   1.411       .  A
C617        C620   1.451       .  S
C618        C622   1.451       .  S
C619        N626   1.157       .  T
C620        N627   1.157       .  T
C621        N625   1.157       .  T
C622        N628   1.157       .  T
C623        N632   1.157       .  T
C624        N630   1.157       .  T
C633        C634   1.411       .  A
C633        C638   1.412       .  A
C633        C651   1.451       .  S
C634        C639   1.492   1_655  S
C634        C635   1.407       .  A
C635        C636   1.407       .  A
C635        C640   1.451   1_655  S
C636        C637   1.418       .  A
C636        C652   1.452       .  S
C637        C638   1.412       .  A
C638        C641   1.449       .  S
C639        C642   1.406   1_455  A
C639        C646   1.407       .  A
C640        N657   1.157       .  T
C641        N659   1.157       .  T
C642        C643   1.412   1_655  A
C642        C647   1.451       .  S
C643        C644   1.424       .  A
C643        C649   1.452   1_455  S
C644        C645   1.421       .  A
C645        C646   1.408       .  A
C645        C648   1.449       .  S
C646        C650   1.453       .  S
C647        N654   1.158       .  T
C648        N655   1.157       .  T
C649        N653   1.157       .  T
C650        N656   1.157       .  T
C651        N660   1.157       .  T
C652        N658   1.157       .  T
C661        C662   1.408       .  A
C661        C666   1.412   1_554  A
C661        C679   1.451   1_554  S
C662        C667   1.495       .  S
C662        C663   1.408       .  A
C663        C664   1.409       .  A
C663        C668   1.452       .  S
C664        C665   1.420       .  A
C664        C680   1.452       .  S
C665        C666   1.421   1_554  A
C666        C669   1.451       .  S
C667        C670   1.409       .  A
C667        C674   1.410       .  A
C668        N685   1.157       .  T
C669        N687   1.157       .  T
C670        C671   1.410       .  A
C670        C675   1.451       .  S
C671        C672   1.417       .  A
C671        C677   1.451       .  S
C672        C673   1.416       .  A
C673        C674   1.410       .  A
C673        C676   1.451       .  S
C674        C678   1.451   1_554  S
C675        N682   1.157       .  T
C676        N683   1.157   1_554  T
C677        N681   1.158   1_565  T
C678        N684   1.157       .  T
C679        N688   1.157       .  T
C680        N686   1.157       .  T
C689        C690   1.410   1_554  A
C689        C694   1.409       .  A
C689        C707   1.452       .  S
C690        C695   1.492   1_556  S
C690        C691   1.409       .  A
C691        C692   1.410       .  A
C691        C696   1.451       .  S
C692        C693   1.416       .  A
C692        C708   1.451       .  S
C693        C694   1.414   1_556  A
C694        C697   1.448       .  S
C695        C698   1.408       .  A
C695        C702   1.408   1_554  A
C696        N713   1.157       .  T
C697        N715   1.156       .  T
C698        C699   1.408       .  A
C698        C703   1.452       .  S
C699        C700   1.417       .  A
C699        C705   1.450       .  S
C700        C701   1.419       .  A
C701        C702   1.410   1_554  A
C701        C704   1.451   1_554  S
C702        C706   1.451       .  S
C703        N710   1.157       .  T
C704        N711   1.157       .  T
C705        N709   1.157       .  T
C706        N712   1.157       .  T
C707        N716   1.157       .  T
C708        N714   1.157       .  T
C717        C718   1.412       .  A
C717        C722   1.409       .  A
C717        C735   1.451   1_545  S
C718        C723   1.499       .  S
C718        C719   1.414       .  A
C719        C720   1.413       .  A
C719        C724   1.450       .  S
C720        C721   1.409       .  A
C720        C736   1.448       .  S
C721        C722   1.411       .  A
C722        C725   1.452       .  S
C723        C726   1.410       .  A
C723        C730   1.415   1_545  A
C724        N741   1.157       .  T
C725        N743   1.157       .  T
C726        C727   1.409       .  A
C726        C731   1.451       .  S
C727        C728   1.413   1_545  A
C727        C733   1.451       .  S
C728        C729   1.410       .  A
C729        C730   1.414       .  A
C729        C732   1.450       .  S
C730        C734   1.450       .  S
C731        N738   1.157       .  T
C732        N739   1.157       .  T
C733        N737   1.157       .  T
C734        N740   1.157       .  T
C735        N744   1.157       .  T
C736        N742   1.157       .  T
C745        C746   1.409   1_545  A
C745        C750   1.405       .  A
C745        C763   1.453       .  S
C746        C751   1.497       .  S
C746        C747   1.410       .  A
C747        C748   1.417       .  A
C747        C752   1.449       .  S
C748        C749   1.418   1_565  A
C748        C764   1.450       .  S
C749        C750   1.419       .  A
C750        C753   1.453       .  S
C751        C754   1.411       .  A
C751        C758   1.406       .  A
C752        N769   1.157       .  T
C753        N771   1.157       .  T
C754        C755   1.416       .  A
C754        C759   1.450       .  S
C755        C756   1.417       .  A
C755        C761   1.450       .  S
C756        C757   1.423       .  A
C757        C758   1.407       .  A
C757        C760   1.453       .  S
C758        C762   1.452   1_565  S
C759        N766   1.157       .  T
C760        N767   1.157       .  T
C761        N765   1.157       .  T
C762        N768   1.157       .  T
C763        N772   1.157       .  T
C764        N770   1.157       .  T
C773        C774   1.413       .  A
C773        C778   1.412       .  A
C773        C791   1.450       .  S
C774        C779   1.501       .  S
C774        C775   1.414       .  A
C775        C776   1.411       .  A
C775        C780   1.450       .  S
C776        C777   1.409       .  A
C776        C792   1.451   1_655  S
C777        C778   1.412       .  A
C778        C781   1.451       .  S
C779        C782   1.412       .  A
C779        C786   1.411       .  A
C780        N797   1.157       .  T
C781        N799   1.157       .  T
C782        C783   1.413       .  A
C782        C787   1.450       .  S
C783        C784   1.415       .  A
C783        C789   1.451       .  S
C784        C785   1.417       .  A
C785        C786   1.412       .  A
C785        C788   1.451       .  S
C786        C790   1.451       .  S
C787        N794   1.157       .  T
C788        N795   1.157       .  T
C789        N793   1.157       .  T
C790        N796   1.157       .  T
C791        N800   1.157       .  T
C792        N798   1.157       .  T
C801        C802   1.406       .  A
C801        C806   1.408       .  A
C801        C819   1.452   1_455  S
C802        C807   1.497       .  S
C802        C803   1.412       .  A
C803        C804   1.414       .  A
C803        C808   1.450       .  S
C804        C805   1.416       .  A
C804        C820   1.450       .  S
C805        C806   1.425       .  A
C806        C809   1.453       .  S
C807        C810   1.410   1_455  A
C807        C814   1.410       .  A
C808        N825   1.157       .  T
C809        N827   1.158       .  T
C810        C811   1.408       .  A
C810        C815   1.453       .  S
C811        C812   1.418       .  A
C811        C817   1.452       .  S
C812        C813   1.418   1_655  A
C813        C814   1.414       .  A
C813        C816   1.451       .  S
C814        C818   1.450       .  S
C815        N822   1.157       .  T
C816        N823   1.157       .  T
C817        N821   1.157       .  T
C818        N824   1.157       .  T
C819        N828   1.157       .  T
C820        N826   1.157       .  T
C829        C830   1.410       .  A
C829        C834   1.412       .  A
C829        C847   1.451       .  S
C830        C835   1.490   1_655  S
C830        C831   1.405       .  A
C831        C832   1.405       .  A
C831        C836   1.453   1_655  S
C832        C833   1.419       .  A
C832        C848   1.450       .  S
C833        C834   1.416       .  A
C834        C837   1.450       .  S
C835        C838   1.411       .  A
C835        C842   1.408   1_455  A
C836        N853   1.157       .  T
C837        N855   1.157       .  T
C838        C839   1.406       .  A
C838        C843   1.452       .  S
C839        C840   1.413       .  A
C839        C845   1.453       .  S
C840        C841   1.415       .  A
C841        C842   1.409   1_455  A
C841        C844   1.451   1_455  S
C842        C846   1.450       .  S
C843        N850   1.157       .  T
C844        N851   1.157       .  T
C845        N849   1.157       .  T
C846        N852   1.157       .  T
C847        N856   1.157       .  T
C848        N854   1.156       .  T
C857        C858   1.411       .  A
C857        C862   1.414       .  A
C857        C875   1.449       .  S
C858        C863   1.503       .  S
C858        C859   1.413       .  A
C859        C860   1.413       .  A
C859        C864   1.451       .  S
C860        C861   1.413       .  A
C860        C876   1.450       .  S
C861        C862   1.415       .  A
C862        C865   1.451       .  S
C863        C866   1.413       .  A
C863        C870   1.409       .  A
C864        N881   1.157       .  T
C865        N883   1.157       .  T
C866        C867   1.421       .  A
C866        C871   1.448       .  S
C867        C868   1.415       .  A
C867        C873   1.448       .  S
C868        C869   1.420       .  A
C869        C870   1.406       .  A
C869        C872   1.453       .  S
C870        C874   1.454       .  S
C871        N878   1.157       .  T
C872        N879   1.157       .  T
C873        N877   1.157       .  T
C874        N880   1.157       .  T
C875        N884   1.158       .  T
C876        N882   1.157       .  T
C885        C886   1.410       .  A
C885        C890   1.407       .  A
C885        C903   1.451       .  S
C886        C891   1.490       .  S
C886        C887   1.409       .  A
C887        C888   1.409       .  A
C887        C892   1.450       .  S
C888        C889   1.414       .  A
C888        C904   1.451   1_545  S
C889        C890   1.410       .  A
C890        C893   1.448       .  S
C891        C894   1.409       .  A
C891        C898   1.409       .  A
C892        N909   1.157       .  T
C893        N911   1.156       .  T
C894        C895   1.408       .  A
C894        C899   1.451       .  S
C895        C896   1.414       .  A
C895        C901   1.452       .  S
C896        C897   1.417       .  A
C897        C898   1.409       .  A
C897        C900   1.451       .  S
C898        C902   1.451       .  S
C899        N906   1.157       .  T
C900        N907   1.157       .  T
C901        N905   1.157       .  T
C902        N908   1.157       .  T
C903        N912   1.157       .  T
C904        N910   1.157       .  T
C913        C914   1.412       .  A
C913        C918   1.418   1_554  A
C913        C931   1.449       .  S
C914        C919   1.506       .  S
C914        C915   1.410   1_554  A
C915        C916   1.411       .  A
C915        C920   1.452       .  S
C916        C917   1.417       .  A
C916        C932   1.451       .  S
C917        C918   1.416       .  A
C918        C921   1.449   1_556  S
C919        C922   1.410   1_554  A
C919        C926   1.412       .  A
C920        N937   1.157       .  T
C921        N939   1.157       .  T
C922        C923   1.417   1_556  A
C922        C927   1.451       .  S
C923        C924   1.417       .  A
C923        C929   1.445   1_554  S
C924        C925   1.416       .  A
C925        C926   1.413       .  A
C925        C928   1.451       .  S
C926        C930   1.451       .  S
C927        N934   1.157       .  T
C928        N935   1.157       .  T
C929        N933   1.155       .  T
C930        N936   1.157       .  T
C931        N940   1.157       .  T
C932        N938   1.157       .  T
C941        C942   1.412       .  A
C941        C946   1.411       .  A
C941        C959   1.449       .  S
C942        C947   1.495       .  S
C942        C943   1.408       .  A
C943        C944   1.409       .  A
C943        C948   1.452       .  S
C944        C945   1.413       .  A
C944        C960   1.445       .  S
C945        C946   1.410       .  A
C946        C949   1.450       .  S
C947        C950   1.413       .  A
C947        C954   1.409       .  A
C948        N965   1.157       .  T
C949        N967   1.157       .  T
C950        C951   1.409       .  A
C950        C955   1.452       .  S
C951        C952   1.412       .  A
C951        C957   1.451       .  S
C952        C953   1.417       .  A
C953        C954   1.413       .  A
C953        C956   1.450       .  S
C954        C958   1.450       .  S
C955        N962   1.157       .  T
C956        N963   1.157       .  T
C957        N961   1.157       .  T
C958        N964   1.157       .  T
C959        N968   1.157       .  T
C960        N966   1.155       .  T
C969        C970   1.407       .  A
C969        C974   1.405       .  A
C969        C987   1.452       .  S
C970        C975   1.510       .  S
C970        C971   1.415       .  A
C971        C972   1.423       .  A
C971        C976   1.449       .  S
C972        C973   1.419       .  A
C972        C988   1.449       .  S
C973        C974   1.429       .  A
C974        C977   1.455       .  S
C975        C978   1.409       .  A
C975        C982   1.411       .  A
C976        N993   1.157       .  T
C977        N995   1.158       .  T
C978        C979   1.415       .  A
C978        C983   1.454       .  S
C979        C980   1.431       .  A
C979        C985   1.452       .  S
C980        C981   1.426       .  A
C981        C982   1.419       .  A
C981        C984   1.450       .  S
C982        C986   1.451       .  S
C983        N990   1.158       .  T
C984        N991   1.158       .  T
C985        N989   1.157       .  T
C986        N992   1.157       .  T
C987        N996   1.156       .  T
C988        N994   1.158       .  T
C997        C998   1.413       .  A
C997       C1002   1.413       .  A
C997       C1015   1.449       .  S
C998       C1003   1.504       .  S
C998        C999   1.410       .  A
C999       C1000   1.415       .  A
C999       C1004   1.451       .  S
C1000      C1001   1.417       .  A
C1000      C1016   1.445       .  S
C1001      C1002   1.413       .  A
C1002      C1005   1.451       .  S
C1003      C1006   1.410       .  A
C1003      C1010   1.413       .  A
C1004      N1021   1.157       .  T
C1005      N1023   1.157       .  T
C1006      C1007   1.414       .  A
C1006      C1011   1.450       .  S
C1007      C1008   1.420       .  A
C1007      C1013   1.451       .  S
C1008      C1009   1.414       .  A
C1009      C1010   1.414       .  A
C1009      C1012   1.449       .  S
C1010      C1014   1.451       .  S
C1011      N1018   1.157       .  T
C1012      N1019   1.157       .  T
C1013      N1017   1.157       .  T
C1014      N1020   1.157       .  T
C1015      N1024   1.157       .  T
C1016      N1022   1.156       .  T
C1025      C1026   1.407       .  A
C1025      C1030   1.409       .  A
C1025      C1043   1.451       .  S
C1026      C1031   1.493       .  S
C1026      C1027   1.410       .  A
C1027      C1028   1.411       .  A
C1027      C1032   1.451       .  S
C1028      C1029   1.417       .  A
C1028      C1044   1.452       .  S
C1029      C1030   1.419       .  A
C1030      C1033   1.452       .  S
C1031      C1034   1.409       .  A
C1031      C1038   1.411       .  A
C1032      N1049   1.157       .  T
C1033      N1051   1.157       .  T
C1034      C1035   1.409       .  A
C1034      C1039   1.451       .  S
C1035      C1036   1.416       .  A
C1035      C1041   1.451       .  S
C1036      C1037   1.414       .  A
C1037      C1038   1.409       .  A
C1037      C1040   1.451       .  S
C1038      C1042   1.451       .  S
C1039      N1046   1.157       .  T
C1040      N1047   1.157       .  T
C1041      N1045   1.157       .  T
C1042      N1048   1.157       .  T
C1043      N1052   1.157       .  T
C1044      N1050   1.158       .  T
C1053      C1054   1.414       .  A
C1053      C1058   1.414       .  A
C1053      C1071   1.449       .  S
C1054      C1059   1.497       .  S
C1054      C1055   1.409       .  A
C1055      C1056   1.407       .  A
C1055      C1060   1.451       .  S
C1056      C1057   1.413       .  A
C1056      C1072   1.450       .  S
C1057      C1058   1.408       .  A
C1058      C1061   1.449       .  S
C1059      C1062   1.412       .  A
C1059      C1066   1.411       .  A
C1060      N1077   1.157       .  T
C1061      N1079   1.157       .  T
C1062      C1063   1.414       .  A
C1062      C1067   1.450       .  S
C1063      C1064   1.413       .  A
C1063      C1069   1.447       .  S
C1064      C1065   1.414       .  A
C1065      C1066   1.408       .  A
C1065      C1068   1.452       .  S
C1066      C1070   1.451       .  S
C1067      N1074   1.157       .  T
C1068      N1075   1.157       .  T
C1069      N1073   1.157       .  T
C1070      N1076   1.157       .  T
C1071      N1080   1.157       .  T
C1072      N1078   1.157       .  T
C1081      C1082   1.413       .  A
C1081      C1086   1.412       .  A
C1081      C1099   1.450       .  S
C1082      C1087   1.505       .  S
C1082      C1083   1.412       .  A
C1083      C1084   1.416       .  A
C1083      C1088   1.449       .  S
C1084      C1085   1.415       .  A
C1084      C1100   1.450       .  S
C1085      C1086   1.414       .  A
C1086      C1089   1.451       .  S
C1087      C1090   1.413       .  A
C1087      C1094   1.406       .  A
C1088      N1105   1.157       .  T
C1089      N1107   1.157       .  T
C1090      C1091   1.420       .  A
C1090      C1095   1.449       .  S
C1091      C1092   1.418       .  A
C1091      C1097   1.448       .  S
C1092      C1093   1.428       .  A
C1093      C1094   1.409       .  A
C1093      C1096   1.453       .  S
C1094      C1098   1.453       .  S
C1095      N1102   1.157       .  T
C1096      N1103   1.158       .  T
C1097      N1101   1.157       .  T
C1098      N1104   1.157       .  T
C1099      N1108   1.157       .  T
C1100      N1106   1.157       .  T
C1109      C1110   1.409       .  A
C1109      C1114   1.415       .  A
C1109      C1127   1.450   1_554  S
C1110      C1115   1.499       .  S
C1110      C1111   1.410       .  A
C1111      C1112   1.410       .  A
C1111      C1116   1.452       .  S
C1112      C1113   1.417       .  A
C1112      C1128   1.452       .  S
C1113      C1114   1.421       .  A
C1114      C1117   1.451       .  S
C1115      C1118   1.408   1_554  A
C1115      C1122   1.408       .  A
C1116      N1133   1.157       .  T
C1117      N1135   1.158   1_554  T
C1118      C1119   1.411       .  A
C1118      C1123   1.452       .  S
C1119      C1120   1.420       .  A
C1119      C1125   1.450       .  S
C1120      C1121   1.418   1_556  A
C1121      C1122   1.416       .  A
C1121      C1124   1.445       .  S
C1122      C1126   1.450       .  S
C1123      N1130   1.157       .  T
C1124      N1131   1.156       .  T
C1125      N1129   1.157       .  T
C1126      N1132   1.157       .  T
C1127      N1136   1.157       .  T
C1128      N1134   1.157       .  T
C1137      C1138   1.411       .  A
C1137      C1142   1.417       .  A
C1137      C1155   1.448       .  S
C1138      C1143   1.494       .  S
C1138      C1139   1.408       .  A
C1139      C1140   1.403       .  A
C1139      C1144   1.454       .  S
C1140      C1141   1.420       .  A
C1140      C1156   1.454       .  S
C1141      C1142   1.415       .  A
C1142      C1145   1.448       .  S
C1143      C1146   1.409       .  A
C1143      C1150   1.412       .  A
C1144      N1161   1.157       .  T
C1145      N1163   1.157       .  T
C1146      C1147   1.408       .  A
C1146      C1151   1.450       .  S
C1147      C1148   1.414       .  A
C1147      C1153   1.452       .  S
C1148      C1149   1.412       .  A
C1149      C1150   1.412       .  A
C1149      C1152   1.450       .  S
C1150      C1154   1.450       .  S
C1151      N1158   1.157       .  T
C1152      N1159   1.157       .  T
C1153      N1157   1.157       .  T
C1154      N1160   1.157       .  T
C1155      N1164   1.157       .  T
C1156      N1162   1.158       .  T
C1165      C1166   1.409       .  A
C1165      C1170   1.410       .  A
C1165      C1183   1.450       .  S
C1166      C1171   1.493       .  S
C1166      C1167   1.410       .  A
C1167      C1168   1.409       .  A
C1167      C1172   1.452   1_554  S
C1168      C1169   1.411       .  A
C1168      C1184   1.447   1_554  S
C1169      C1170   1.415       .  A
C1170      C1173   1.452       .  S
C1171      C1174   1.409       .  A
C1171      C1178   1.410       .  A
C1172      N1189   1.157       .  T
C1173      N1191   1.157       .  T
C1174      C1175   1.409       .  A
C1174      C1179   1.451       .  S
C1175      C1176   1.417       .  A
C1175      C1181   1.451       .  S
C1176      C1177   1.417       .  A
C1177      C1178   1.409       .  A
C1177      C1180   1.452   1_554  S
C1178      C1182   1.451       .  S
C1179      N1186   1.157       .  T
C1180      N1187   1.157       .  T
C1181      N1185   1.157       .  T
C1182      N1188   1.157       .  T
C1183      N1192   1.157       .  T
C1184      N1190   1.156       .  T
C1193      C1194   1.407       .  A
C1193      C1198   1.416       .  A
C1193      C1211   1.450       .  S
C1194      C1199   1.502       .  S
C1194      C1195   1.410       .  A
C1195      C1196   1.413   1_554  A
C1195      C1200   1.452   1_554  S
C1196      C1197   1.425       .  A
C1196      C1212   1.453       .  S
C1197      C1198   1.423   1_556  A
C1198      C1201   1.447       .  S
C1199      C1202   1.407       .  A
C1199      C1206   1.412       .  A
C1200      N1217   1.157       .  T
C1201      N1219   1.157       .  T
C1202      C1203   1.411       .  A
C1202      C1207   1.452   1_554  S
C1203      C1204   1.415       .  A
C1203      C1209   1.444   1_554  S
C1204      C1205   1.413       .  A
C1205      C1206   1.416       .  A
C1205      C1208   1.450       .  S
C1206      C1210   1.449       .  S
C1207      N1214   1.157       .  T
C1208      N1215   1.157       .  T
C1209      N1213   1.155       .  T
C1210      N1216   1.157       .  T
C1211      N1220   1.157       .  T
C1212      N1218   1.158       .  T
C1221      C1222   1.411   1_556  A
C1221      C1226   1.410       .  A
C1221      C1239   1.451       .  S
C1222      C1227   1.497       .  S
C1222      C1223   1.413       .  A
C1223      C1224   1.411       .  A
C1223      C1228   1.450       .  S
C1224      C1225   1.412   1_554  A
C1224      C1240   1.452       .  S
C1225      C1226   1.412       .  A
C1226      C1229   1.449       .  S
C1227      C1230   1.413       .  A
C1227      C1234   1.410       .  A
C1228      N1245   1.157       .  T
C1229      N1247   1.157       .  T
C1230      C1231   1.413       .  A
C1230      C1235   1.450   1_554  S
C1231      C1232   1.410       .  A
C1231      C1237   1.450       .  S
C1232      C1233   1.414       .  A
C1233      C1234   1.409       .  A
C1233      C1236   1.451       .  S
C1234      C1238   1.452       .  S
C1235      N1242   1.157       .  T
C1236      N1243   1.157       .  T
C1237      N1241   1.157       .  T
C1238      N1244   1.157       .  T
C1239      N1248   1.157       .  T
C1240      N1246   1.157       .  T
C1249      C1250   1.405       .  A
C1249      C1254   1.409       .  A
C1249      C1267   1.451       .  S
C1250      C1255   1.492       .  S
C1250      C1251   1.410       .  A
C1251      C1252   1.411       .  A
C1251      C1256   1.450       .  S
C1252      C1253   1.414       .  A
C1252      C1268   1.450       .  S
C1253      C1254   1.416       .  A
C1254      C1257   1.442       .  S
C1255      C1258   1.410       .  A
C1255      C1262   1.411       .  A
C1256      N1273   1.157       .  T
C1257      N1275   1.155       .  T
C1258      C1259   1.412       .  A
C1258      C1263   1.449       .  S
C1259      C1260   1.413       .  A
C1259      C1265   1.450       .  S
C1260      C1261   1.410       .  A
C1261      C1262   1.406       .  A
C1261      C1264   1.451       .  S
C1262      C1266   1.452       .  S
C1263      N1270   1.157       .  T
C1264      N1271   1.157       .  T
C1265      N1269   1.157       .  T
C1266      N1272   1.157       .  T
C1267      N1276   1.157       .  T
C1268      N1274   1.157       .  T
C1277      C1278   1.411       .  A
C1277      C1282   1.411       .  A
C1277      C1295   1.451       .  S
C1278      C1283   1.498       .  S
C1278      C1279   1.410       .  A
C1279      C1280   1.412       .  A
C1279      C1284   1.450       .  S
C1280      C1281   1.417       .  A
C1280      C1296   1.452       .  S
C1281      C1282   1.414       .  A
C1282      C1285   1.450       .  S
C1283      C1286   1.411       .  A
C1283      C1290   1.410       .  A
C1284      N1301   1.157       .  T
C1285      N1303   1.157       .  T
C1286      C1287   1.412       .  A
C1286      C1291   1.450       .  S
C1287      C1288   1.413       .  A
C1287      C1293   1.451       .  S
C1288      C1289   1.416       .  A
C1289      C1290   1.412       .  A
C1289      C1292   1.451       .  S
C1290      C1294   1.451       .  S
C1291      N1298   1.157       .  T
C1292      N1299   1.157       .  T
C1293      N1297   1.157       .  T
C1294      N1300   1.157       .  T
C1295      N1304   1.157       .  T
C1296      N1302   1.157       .  T
C1305      C1306   1.403       .  A
C1305      C1310   1.403       .  A
C1305      C1323   1.455       .  S
C1306      C1311   1.493       .  S
C1306      C1307   1.409       .  A
C1307      C1308   1.416       .  A
C1307      C1312   1.451       .  S
C1308      C1309   1.423       .  A
C1308      C1324   1.451       .  S
C1309      C1310   1.430       .  A
C1310      C1313   1.453       .  S
C1311      C1314   1.410       .  A
C1311      C1318   1.411       .  A
C1312      N1329   1.157       .  T
C1313      N1331   1.158       .  T
C1314      C1315   1.412       .  A
C1314      C1319   1.450       .  S
C1315      C1316   1.416       .  A
C1315      C1321   1.451       .  S
C1316      C1317   1.415       .  A
C1317      C1318   1.404       .  A
C1317      C1320   1.452       .  S
C1318      C1322   1.453       .  S
C1319      N1326   1.157       .  T
C1320      N1327   1.157       .  T
C1321      N1325   1.157       .  T
C1322      N1328   1.157       .  T
C1323      N1332   1.157       .  T
C1324      N1330   1.158       .  T
C1333      C1334   1.406       .  A
C1333      C1338   1.405       .  A
C1333      C1351   1.455       .  S
C1334      C1339   1.489       .  S
C1334      C1335   1.405       .  A
C1335      C1336   1.412       .  A
C1335      C1340   1.450       .  S
C1336      C1337   1.425       .  A
C1336      C1352   1.451       .  S
C1337      C1338   1.425       .  A
C1338      C1341   1.451       .  S
C1339      C1342   1.404       .  A
C1339      C1346   1.409       .  A
C1340      N1357   1.157       .  T
C1341      N1359   1.157       .  T
C1342      C1343   1.405       .  A
C1342      C1347   1.453       .  S
C1343      C1344   1.423       .  A
C1343      C1349   1.452       .  S
C1344      C1345   1.418       .  A
C1345      C1346   1.412       .  A
C1345      C1348   1.451       .  S
C1346      C1350   1.451       .  S
C1347      N1354   1.157       .  T
C1348      N1355   1.157       .  T
C1349      N1353   1.157       .  T
C1350      N1356   1.157       .  T
C1351      N1360   1.157       .  T
C1352      N1358   1.158       .  T
C1361      C1362   1.413       .  A
C1361      C1366   1.412       .  A
C1361      C1379   1.450       .  S
C1362      C1367   1.496       .  S
C1362      C1363   1.410       .  A
C1363      C1364   1.410       .  A
C1363      C1368   1.450       .  S
C1364      C1365   1.411       .  A
C1364      C1380   1.450       .  S
C1365      C1366   1.409       .  A
C1366      C1369   1.450       .  S
C1367      C1370   1.411       .  A
C1367      C1374   1.411       .  A
C1368      N1385   1.157       .  T
C1369      N1387   1.157       .  T
C1370      C1371   1.416       .  A
C1370      C1375   1.448       .  S
C1371      C1372   1.414       .  A
C1371      C1377   1.449       .  S
C1372      C1373   1.414       .  A
C1373      C1374   1.404       .  A
C1373      C1376   1.453       .  S
C1374      C1378   1.452       .  S
C1375      N1382   1.157       .  T
C1376      N1383   1.157       .  T
C1377      N1381   1.157       .  T
C1378      N1384   1.157       .  T
C1379      N1388   1.157       .  T
C1380      N1386   1.157       .  T
C1389      C1390   1.411       .  A
C1389      C1394   1.421       .  A
C1389      C1407   1.449       .  S
C1390      C1395   1.507       .  S
C1390      C1391   1.406       .  A
C1391      C1392   1.412       .  A
C1391      C1396   1.455       .  S
C1392      C1393   1.432       .  A
C1392      C1408   1.453       .  S
C1393      C1394   1.423       .  A
C1394      C1397   1.450       .  S
C1395      C1398   1.415       .  A
C1395      C1402   1.408       .  A
C1396      N1413   1.157       .  T
C1397      N1415   1.157       .  T
C1398      C1399   1.419       .  A
C1398      C1403   1.448       .  S
C1399      C1400   1.411       .  A
C1399      C1405   1.449       .  S
C1400      C1401   1.418       .  A
C1401      C1402   1.412       .  A
C1401      C1404   1.447       .  S
C1402      C1406   1.453       .  S
C1403      N1410   1.157       .  T
C1404      N1411   1.156       .  T
C1405      N1409   1.157       .  T
C1406      N1412   1.157       .  T
C1407      N1416   1.157       .  T
C1408      N1414   1.158       .  T
C1417      C1418   1.410       .  A
C1417      C1422   1.412       .  A
C1417      C1435   1.451       .  S
C1418      C1423   1.493       .  S
C1418      C1419   1.408       .  A
C1419      C1420   1.408       .  A
C1419      C1424   1.452       .  S
C1420      C1421   1.419       .  A
C1420      C1436   1.452       .  S
C1421      C1422   1.417       .  A
C1422      C1425   1.449       .  S
C1423      C1426   1.413       .  A
C1423      C1430   1.410       .  A
C1424      N1441   1.157       .  T
C1425      N1443   1.157       .  T
C1426      C1427   1.412       .  A
C1426      C1431   1.449       .  S
C1427      C1428   1.409       .  A
C1427      C1433   1.450       .  S
C1428      C1429   1.410       .  A
C1429      C1430   1.405       .  A
C1429      C1432   1.449       .  S
C1430      C1434   1.452       .  S
C1431      N1438   1.157       .  T
C1432      N1439   1.156       .  T
C1433      N1437   1.157       .  T
C1434      N1440   1.157       .  T
C1435      N1444   1.157       .  T
C1436      N1442   1.157       .  T
C1445      C1446   1.407       .  A
C1445      C1450   1.409       .  A
C1445      C1463   1.451       .  S
C1446      C1451   1.487       .  S
C1446      C1447   1.406       .  A
C1447      C1448   1.406       .  A
C1447      C1452   1.453       .  S
C1448      C1449   1.421       .  A
C1448      C1464   1.452       .  S
C1449      C1450   1.419       .  A
C1450      C1453   1.452       .  S
C1451      C1454   1.407       .  A
C1451      C1458   1.402       .  A
C1452      N1469   1.157       .  T
C1453      N1471   1.158       .  T
C1454      C1455   1.412       .  A
C1454      C1459   1.452       .  S
C1455      C1456   1.422       .  A
C1455      C1461   1.450       .  S
C1456      C1457   1.430       .  A
C1457      C1458   1.404       .  A
C1457      C1460   1.454       .  S
C1458      C1462   1.454       .  S
C1459      N1466   1.157       .  T
C1460      N1467   1.158       .  T
C1461      N1465   1.158       .  T
C1462      N1468   1.157       .  T
C1463      N1472   1.157       .  T
C1464      N1470   1.157       .  T
C1473      C1474   1.410       .  A
C1473      C1478   1.414       .  A
C1473      C1491   1.450       .  S
C1474      C1479   1.499       .  S
C1474      C1475   1.412       .  A
C1475      C1476   1.410       .  A
C1475      C1480   1.450       .  S
C1476      C1477   1.412       .  A
C1476      C1492   1.451       .  S
C1477      C1478   1.415       .  A
C1478      C1481   1.450       .  S
C1479      C1482   1.413       .  A
C1479      C1486   1.409       .  A
C1480      N1497   1.157       .  T
C1481      N1499   1.157       .  T
C1482      C1483   1.413       .  A
C1482      C1487   1.450       .  S
C1483      C1484   1.411       .  A
C1483      C1489   1.450       .  S
C1484      C1485   1.414       .  A
C1485      C1486   1.411       .  A
C1485      C1488   1.450       .  S
C1486      C1490   1.450       .  S
C1487      N1494   1.157       .  T
C1488      N1495   1.157       .  T
C1489      N1493   1.157       .  T
C1490      N1496   1.157       .  T
C1491      N1500   1.157       .  T
C1492      N1498   1.157       .  T
C1501      C1502   1.410       .  A
C1501      C1506   1.414       .  A
C1501      C1519   1.449       .  S
C1502      C1507   1.492       .  S
C1502      C1503   1.408       .  A
C1503      C1504   1.405       .  A
C1503      C1508   1.453       .  S
C1504      C1505   1.418       .  A
C1504      C1520   1.452       .  S
C1505      C1506   1.416       .  A
C1506      C1509   1.450       .  S
C1507      C1510   1.406       .  A
C1507      C1514   1.411       .  A
C1508      N1525   1.157       .  T
C1509      N1527   1.157       .  T
C1510      C1511   1.405       .  A
C1510      C1515   1.452       .  S
C1511      C1512   1.422       .  A
C1511      C1517   1.453       .  S
C1512      C1513   1.415       .  A
C1513      C1514   1.413       .  A
C1513      C1516   1.451       .  S
C1514      C1518   1.450       .  S
C1515      N1522   1.157       .  T
C1516      N1523   1.157       .  T
C1517      N1521   1.157       .  T
C1518      N1524   1.157       .  T
C1519      N1528   1.157       .  T
C1520      N1526   1.157       .  T
C1529      C1530   1.410       .  A
C1529      C1534   1.417       .  A
C1529      C1547   1.450   1_554  S
C1530      C1535   1.504       .  S
C1530      C1531   1.410       .  A
C1531      C1532   1.413       .  A
C1531      C1536   1.451       .  S
C1532      C1533   1.420       .  A
C1532      C1548   1.452       .  S
C1533      C1534   1.421       .  A
C1534      C1537   1.450       .  S
C1535      C1538   1.411   1_554  A
C1535      C1542   1.410       .  A
C1536      N1553   1.157       .  T
C1537      N1555   1.157       .  T
C1538      C1539   1.412       .  A
C1538      C1543   1.450       .  S
C1539      C1540   1.415       .  A
C1539      C1545   1.451       .  S
C1540      C1541   1.416   1_556  A
C1541      C1542   1.417       .  A
C1541      C1544   1.446       .  S
C1542      C1546   1.450       .  S
C1543      N1550   1.157       .  T
C1544      N1551   1.156       .  T
C1545      N1549   1.157       .  T
C1546      N1552   1.157       .  T
C1547      N1556   1.157       .  T
C1548      N1554   1.158       .  T
C1557      C1558   1.410       .  A
C1557      C1562   1.410       .  A
C1557      C1575   1.450   1_554  S
C1558      C1563   1.492       .  S
C1558      C1559   1.408       .  A
C1559      C1560   1.408       .  A
C1559      C1564   1.452       .  S
C1560      C1561   1.419       .  A
C1560      C1576   1.451       .  S
C1561      C1562   1.412       .  A
C1562      C1565   1.450   1_554  S
C1563      C1566   1.407       .  A
C1563      C1570   1.405       .  A
C1564      N1581   1.157       .  T
C1565      N1583   1.157       .  T
C1566      C1567   1.410   1_554  A
C1566      C1571   1.452       .  S
C1567      C1568   1.424       .  A
C1567      C1573   1.452       .  S
C1568      C1569   1.426   1_556  A
C1569      C1570   1.410       .  A
C1569      C1572   1.452       .  S
C1570      C1574   1.452       .  S
C1571      N1578   1.157       .  T
C1572      N1579   1.158       .  T
C1573      N1577   1.157       .  T
C1574      N1580   1.157       .  T
C1575      N1584   1.157       .  T
C1576      N1582   1.157       .  T
C1585      C1586   1.415       .  A
C1585      C1590   1.418       .  A
C1585      C1603   1.450       .  S
C1586      C1591   1.509       .  S
C1586      C1587   1.408       .  A
C1587      C1588   1.408       .  A
C1587      C1592   1.454       .  S
C1588      C1589   1.428       .  A
C1588      C1604   1.452       .  S
C1589      C1590   1.418       .  A
C1590      C1593   1.448       .  S
C1591      C1594   1.415       .  A
C1591      C1598   1.416       .  A
C1592      N1609   1.157       .  T
C1593      N1611   1.158       .  T
C1594      C1595   1.417       .  A
C1594      C1599   1.450       .  S
C1595      C1596   1.420       .  A
C1595      C1601   1.450       .  S
C1596      C1597   1.411       .  A
C1597      C1598   1.407       .  A
C1597      C1600   1.449       .  S
C1598      C1602   1.452       .  S
C1599      N1606   1.157       .  T
C1600      N1607   1.157       .  T
C1601      N1605   1.157       .  T
C1602      N1608   1.157       .  T
C1603      N1612   1.157       .  T
C1604      N1610   1.158       .  T
C1613      C1614   1.415       .  A
C1613      C1618   1.418       .  A
C1613      C1631   1.449       .  S
C1614      C1619   1.506       .  S
C1614      C1615   1.408       .  A
C1615      C1616   1.409       .  A
C1615      C1620   1.453       .  S
C1616      C1617   1.422       .  A
C1616      C1632   1.451       .  S
C1617      C1618   1.414       .  A
C1618      C1621   1.449       .  S
C1619      C1622   1.416       .  A
C1619      C1626   1.415       .  A
C1620      N1637   1.157       .  T
C1621      N1639   1.157       .  T
C1622      C1623   1.409       .  A
C1622      C1627   1.451       .  S
C1623      C1624   1.408       .  A
C1623      C1629   1.452       .  S
C1624      C1625   1.411       .  A
C1625      C1626   1.415       .  A
C1625      C1628   1.449       .  S
C1626      C1630   1.449       .  S
C1627      N1634   1.157       .  T
C1628      N1635   1.157       .  T
C1629      N1633   1.157       .  T
C1630      N1636   1.157       .  T
C1631      N1640   1.157       .  T
C1632      N1638   1.157       .  T
C1641      C1642   1.413       .  A
C1641      C1646   1.406       .  A
C1641      C1659   1.454       .  S
C1642      C1647   1.500       .  S
C1642      C1643   1.413       .  A
C1643      C1644   1.418       .  A
C1643      C1648   1.448       .  S
C1644      C1645   1.412       .  A
C1644      C1660   1.449       .  S
C1645      C1646   1.413       .  A
C1646      C1649   1.452       .  S
C1647      C1650   1.412       .  A
C1647      C1654   1.410       .  A
C1648      N1665   1.157       .  T
C1649      N1667   1.157       .  T
C1650      C1651   1.415       .  A
C1650      C1655   1.450       .  S
C1651      C1652   1.416       .  A
C1651      C1657   1.450       .  S
C1652      C1653   1.416       .  A
C1653      C1654   1.410       .  A
C1653      C1656   1.450       .  S
C1654      C1658   1.451       .  S
C1655      N1662   1.157       .  T
C1656      N1663   1.157       .  T
C1657      N1661   1.157       .  T
C1658      N1664   1.157       .  T
C1659      N1668   1.157       .  T
C1660      N1666   1.157       .  T
C1669      C1670   1.412       .  A
C1669      C1674   1.414       .  A
C1669      C1687   1.451       .  S
C1670      C1675   1.502       .  S
C1670      C1671   1.410       .  A
C1671      C1672   1.409   1_554  A
C1671      C1676   1.453   1_554  S
C1672      C1673   1.423   1_556  A
C1672      C1688   1.452       .  S
C1673      C1674   1.417       .  A
C1674      C1677   1.449       .  S
C1675      C1678   1.409       .  A
C1675      C1682   1.410       .  A
C1676      N1693   1.157       .  T
C1677      N1695   1.157       .  T
C1678      C1679   1.412       .  A
C1678      C1683   1.452       .  S
C1679      C1680   1.426       .  A
C1679      C1685   1.452       .  S
C1680      C1681   1.423       .  A
C1681      C1682   1.412       .  A
C1681      C1684   1.451       .  S
C1682      C1686   1.452       .  S
C1683      N1690   1.157       .  T
C1684      N1691   1.157       .  T
C1685      N1689   1.158       .  T
C1686      N1692   1.157       .  T
C1687      N1696   1.158       .  T
C1688      N1694   1.158       .  T
