geometry optimzed in LAMMPS
_audit_creation_date              2020-11-30 
_audit_creation_method            'lammps2cif' 
_symmetry_space_group_name_H-M    'P1' 
_symmetry_Int_Tables_number       1 
_symmetry_cell_setting            triclinic 
loop_ 
_symmetry_equiv_pos_as_xyz 
  x,y,z 
_cell_length_a                    63.65177003 
_cell_length_b                    63.61599441532045 
_cell_length_c                    28.76177726098066 
_cell_angle_alpha                 90.27611529523516 
_cell_angle_beta                  89.81930979943662 
_cell_angle_gamma                 120.34015618884465 
loop_ 
_atom_site_label 
_atom_site_type_symbol 
_atom_site_fract_x 
_atom_site_fract_y 
_atom_site_fract_z 
_atom_site_charge 
O1          O  0.14990831  0.59978760  0.87571176    -0.56400
C2          C  0.14919343  0.60996766  0.73359276     0.76200
O3          O  0.10456511  0.63005383  0.81392806    -0.57500
C4          C  0.14403998  0.60678585  0.91239223     0.76200
C5          C  0.18045842  0.67492995  0.84249444     0.78600
Cd6        Cd  0.14138468  0.62582848  0.82355021     1.37500
O7          O  0.14856620  0.59909806  0.77079711    -0.56400
O8          O  0.18393913  0.65733386  0.83463664    -0.55200
C9          C  0.08971423  0.60803183  0.82437499     0.78600
O10         O  0.15872820  0.67037048  0.83804228    -0.57600
O11         O  0.14681154  0.62847378  0.73810039    -0.56000
O12         O  0.13741252  0.62228465  0.90705661    -0.56000
O13         O  0.09891884  0.59487452  0.83234971    -0.55200
O14         O  0.39555788  0.84850114  0.93952290    -0.56400
C15         C  0.38911885  0.85374040  0.08385036     0.76200
O16         O  0.40593857  0.90265228  0.98899733    -0.57500
C17         C  0.38981499  0.85596425  0.90354493     0.76200
C18         C  0.32282512  0.82378586  0.97932069     0.78600
Cd19       Cd  0.37301831  0.86080437  0.99417077     1.37500
O20         O  0.39873726  0.85216297  0.04628241    -0.56400
O21         O  0.33826962  0.81890962  0.99590697    -0.55200
C22         C  0.39373008  0.91285859  0.99787214     0.78600
O23         O  0.32997465  0.84614119  0.97352867    -0.57600
O24         O  0.37149289  0.85753501  0.07968338    -0.56000
O25         O  0.37656696  0.86522748  0.91019873    -0.56000
O26         O  0.37126952  0.89879502  0.00633733    -0.55200
O27         O  0.44251935  0.85195812  0.54408368    -0.56400
C28         C  0.45668376  0.85713010  0.40378752     0.76200
O29         O  0.52061700  0.89893789  0.48192820    -0.57500
C30         C  0.45467403  0.85821616  0.58165064     0.76200
C31         C  0.48665645  0.82285267  0.51681386     0.78600
Cd32       Cd  0.47886052  0.86258729  0.49468815     1.37500
O33         O  0.44896087  0.86265145  0.43973553    -0.56400
O34         O  0.46578923  0.82028986  0.51097956    -0.55200
C35         C  0.51496239  0.91373231  0.49963728     0.78600
O36         O  0.50467102  0.84382935  0.50828257    -0.57600
O37         O  0.47420953  0.85338569  0.40992224    -0.56000
O38         O  0.47725945  0.86616182  0.57792940    -0.56000
O39         O  0.49327870  0.90472973  0.51352510    -0.55200
O40         O  0.44141952  0.60277899  0.61185066    -0.56400
C41         C  0.45284047  0.61349292  0.75583212     0.76200
O42         O  0.51599698  0.62802415  0.67191897    -0.57500
C43         C  0.45486361  0.60825093  0.57596939     0.76200
C44         C  0.48629699  0.67513435  0.64246307     0.78600
Cd45       Cd  0.47603299  0.62669322  0.66548370     1.37500
O46         O  0.44169071  0.60246437  0.71911438    -0.56400
O47         O  0.46532034  0.65640016  0.64123095    -0.55200
C48         C  0.50655763  0.60508881  0.66799535     0.78600
O49         O  0.50330932  0.67228383  0.65830531    -0.57600
O50         O  0.47421635  0.63131870  0.75033451    -0.56000
O51         O  0.47756753  0.62125889  0.58256183    -0.56000
O52         O  0.48366038  0.59295691  0.66398830    -0.55200
O53         O  0.39485368  0.55870723  0.11276328    -0.56400
C54         C  0.39167954  0.54521089  0.25420991     0.76200
O55         O  0.33028109  0.49370514  0.18756352    -0.57500
C56         C  0.38977832  0.54617231  0.07571244     0.76200
C57         C  0.39379956  0.49182327  0.15984359     0.78600
Cd58       Cd  0.37317300  0.52283267  0.16488962     1.37500
O59         O  0.39488374  0.55835530  0.21885186    -0.56400
O60         O  0.40627472  0.51453831  0.16714497    -0.55200
C61         C  0.32248407  0.50797982  0.17821498     0.78600
O62         O  0.37111311  0.48301174  0.15378702    -0.57600
O63         O  0.38035510  0.52250027  0.24734772    -0.56000
O64         O  0.37659954  0.52331682  0.08021452    -0.56000
O65         O  0.33752899  0.52792179  0.15932473    -0.55200
O66         O  0.14917321  0.55453610  0.26821408    -0.56400
C67         C  0.14628304  0.54387337  0.41223827     0.76200
O68         O  0.10179675  0.47805378  0.32947836    -0.57500
C69         C  0.13993990  0.54101197  0.23274870     0.76200
C70         C  0.17740260  0.51106634  0.30524746     0.78600
Cd71       Cd  0.13800455  0.52009694  0.32245132     1.37500
O72         O  0.14270004  0.55284388  0.37597385    -0.56400
O73         O  0.18019628  0.53220652  0.30710637    -0.55200
C74         C  0.08662881  0.48538665  0.32688099     0.78600
O75         O  0.15615470  0.49353793  0.31385322    -0.57600
O76         O  0.14670214  0.52433588  0.40672620    -0.56000
O77         O  0.12985228  0.51833017  0.23947951    -0.56000
O78         O  0.09550499  0.50813358  0.32353679    -0.55200
O79         O  0.59977681  0.44806378  0.61528588    -0.56400
C80         C  0.60507981  0.46151655  0.75753136     0.76200
O81         O  0.66446907  0.51323821  0.68388254    -0.57500
C82         C  0.60497042  0.46080218  0.57869759     0.76200
C83         C  0.59924452  0.51447180  0.66827305     0.78600
Cd84       Cd  0.62077820  0.48389322  0.66812582     1.37500
O85         O  0.59586425  0.44910159  0.72079822    -0.56400
O86         O  0.58781013  0.49234254  0.68035136    -0.55200
C87         C  0.67127616  0.49784624  0.67744764     0.78600
O88         O  0.62121764  0.52294184  0.65586684    -0.57600
O89         O  0.62121317  0.48358703  0.75198287    -0.56000
O90         O  0.61771202  0.48365292  0.58399112    -0.56000
O91         O  0.65516262  0.47697680  0.66342465    -0.55200
O92         O  0.85277849  0.45644608  0.87723342    -0.56400
C93         C  0.84963324  0.46308465  0.73317658     0.76200
O94         O  0.83963349  0.51491782  0.80353005    -0.57500
C95         C  0.85164605  0.46723071  0.91351724     0.76200
C96         C  0.90710819  0.52125133  0.82229163     0.78600
Cd97       Cd  0.85562370  0.48740108  0.82159798     1.37500
O98         O  0.84007589  0.45077196  0.76975742    -0.56400
O99         O  0.89763805  0.49909024  0.81083071    -0.55200
C100        C  0.81747860  0.49813523  0.80463243     0.78600
O101        O  0.89252051  0.52846737  0.83390773    -0.57600
O102        O  0.86204215  0.48594072  0.73841375    -0.56000
O103        O  0.85110971  0.48661517  0.90705581    -0.56000
O104        O  0.81337469  0.47733197  0.81702972    -0.55200
O105        O  0.85553584  0.41306104  0.27012127    -0.56400
C106        C  0.84635514  0.39827001  0.41141832     0.76200
O107        O  0.83532664  0.33770417  0.34052489    -0.57500
C108        C  0.85181334  0.40087719  0.23299829     0.76200
C109        C  0.90460734  0.39547694  0.32916164     0.78600
Cd110      Cd  0.85406944  0.38162423  0.32316744     1.37500
O111        O  0.84205164  0.40578559  0.37382034    -0.56400
O112        O  0.89627943  0.40893460  0.34154163    -0.55200
C113        C  0.81362859  0.33349744  0.33889943     0.78600
O114        O  0.88937155  0.37485590  0.31222723    -0.57600
O115        O  0.85441499  0.38382939  0.40732770    -0.56000
O116        O  0.84853184  0.37963195  0.23771586    -0.56000
O117        O  0.81085681  0.35080999  0.32512227    -0.55200
O118        O  0.59401038  0.15801915  0.43941499    -0.56400
C119        C  0.60374384  0.15494006  0.58304439     0.76200
O120        O  0.62389400  0.11156842  0.49970463    -0.57500
C121        C  0.60043597  0.15142073  0.40291936     0.76200
C122        C  0.66648721  0.18797931  0.47479060     0.78600
Cd123      Cd  0.61850106  0.14778498  0.49214468     1.37500
O124        O  0.59084748  0.15157344  0.54722686    -0.56400
O125        O  0.64869615  0.19079363  0.48496273    -0.55200
C126        C  0.60127959  0.09631916  0.49616808     0.78600
O127        O  0.66257043  0.16634473  0.47617544    -0.57600
O128        O  0.62388118  0.15584976  0.57657398    -0.56000
O129        O  0.61450615  0.14306046  0.40867890    -0.56000
O130        O  0.58757125  0.10515543  0.49104565    -0.55200
O131        O  0.55076429  0.15665834  0.94164779    -0.56400
C132        C  0.53694288  0.15196769  0.08218164     0.76200
O133        O  0.48907221  0.16697702  0.99911980    -0.57500
C134        C  0.54126176  0.15837981  0.90432858     0.76200
C135        C  0.48418465  0.09664672  0.99251519     0.78600
Cd136      Cd  0.51610808  0.14881899  0.99263561     1.37500
O137        O  0.55014944  0.15810977  0.04587470    -0.56400
O138        O  0.50633124  0.10732476  0.00400140    -0.55200
C139        C  0.50580622  0.18657957  0.01713093     0.78600
O140        O  0.47604345  0.11023276  0.97946781    -0.57600
O141        O  0.51453078  0.14435828  0.07619113    -0.56000
O142        O  0.52077278  0.15696762  0.90830888    -0.56000
O143        O  0.52678945  0.18909504  0.01894104    -0.55200
O144        O  0.55258192  0.40782244  0.22144814    -0.56400
C145        C  0.54038724  0.40204990  0.07854357     0.76200
O146        O  0.49140915  0.33843880  0.15443032    -0.57500
C147        C  0.54092835  0.39695837  0.25782770     0.76200
C148        C  0.48618139  0.40197334  0.16591962     0.78600
Cd149      Cd  0.51866715  0.38310120  0.16695555     1.37500
O150        O  0.55355961  0.40721129  0.11465890    -0.56400
O151        O  0.50876336  0.41484076  0.15809916    -0.55200
C152        C  0.50886320  0.33464512  0.14674764     0.78600
O153        O  0.47820312  0.37986889  0.17665766    -0.57600
O154        O  0.51767421  0.38858877  0.08416638    -0.56000
O155        O  0.51934714  0.37966270  0.25174790    -0.56000
O156        O  0.53007363  0.35280662  0.15125590    -0.55200
C157        C  0.47977582  0.26889403  0.10452677    -0.26800
C158        C  0.50049400  0.26679724  0.09739407     0.06800
C159        C  0.52358244  0.28688221  0.10729146     0.26500
C160        C  0.52586917  0.30844216  0.12446052    -0.11300
C161        C  0.50527688  0.31072134  0.13177456    -0.25200
C162        C  0.48208021  0.29066394  0.12172037     0.37300
C163        C  0.49847607  0.24397707  0.07928212     0.06900
F164        F  0.54410276  0.28594127  0.09894024    -0.19000
H165        H  0.54398567  0.32359687  0.13120851     0.16700
F166        F  0.46172223  0.29216837  0.12768939    -0.22700
H167        H  0.46183861  0.25364777  0.09693367     0.18500
C168        C  0.51029644  0.23349189  0.10254489     0.26500
C169        C  0.51203339  0.21456621  0.08197855    -0.11200
C170        C  0.50147195  0.20517789  0.03846726    -0.25300
C171        C  0.48812167  0.21437932  0.01644383     0.37400
C172        C  0.48677216  0.23381935  0.03673067    -0.26900
F173        F  0.52065564  0.24194624  0.14483646    -0.19000
H174        H  0.52190815  0.20730855  0.10000077     0.16700
F175        F  0.47775143  0.20566516  0.97430297    -0.22700
H176        H  0.47754641  0.24164742  0.01830691     0.18500
C177        C  0.54131535  0.14792675  0.21295973    -0.26800
C178        C  0.56608948  0.15582088  0.21895547     0.06800
C179        C  0.58130679  0.16270868  0.17949748     0.26500
C180        C  0.57176325  0.16146424  0.13516528    -0.11300
C181        C  0.54695601  0.15349401  0.12925732    -0.25200
C182        C  0.53182896  0.14693161  0.16880426     0.37300
C183        C  0.57557315  0.15578917  0.26609304     0.06900
F184        F  0.60548036  0.17095702  0.18373367    -0.19000
H185        H  0.58383443  0.16674531  0.10542352     0.16700
F186        F  0.50777904  0.13936790  0.16505446    -0.22700
H187        H  0.52908874  0.14204661  0.24249168     0.18500
C188        C  0.56902642  0.16472255  0.30513707     0.26500
C189        C  0.57713389  0.16329760  0.34956790    -0.11200
C190        C  0.59211329  0.15322067  0.35586520    -0.25300
C191        C  0.59909752  0.14483750  0.31661585     0.37400
C192        C  0.59066041  0.14587656  0.27249806    -0.26900
F193        F  0.55507492  0.17513879  0.30035247    -0.19000
H194        H  0.57171826  0.17014023  0.37903273     0.16700
F195        F  0.61393041  0.13537283  0.32063146    -0.22700
H196        H  0.59563050  0.13846115  0.24332797     0.18500
C197        C  0.56311368  0.14847747  0.68520227    -0.26800
C198        C  0.58017088  0.16084845  0.72069421     0.06800
C199        C  0.60512544  0.17139717  0.71038849     0.26500
C200        C  0.61268872  0.16945011  0.66557597    -0.11300
C201        C  0.59558918  0.15729394  0.63006042    -0.25200
C202        C  0.57066962  0.14683336  0.64031806     0.37300
C203        C  0.57162998  0.16212745  0.76830988     0.06900
F204        F  0.62222241  0.18401310  0.74332096    -0.19000
H205        H  0.63198040  0.17770567  0.65849062     0.16700
F206        F  0.55352380  0.13426809  0.60742892    -0.22700
H207        H  0.54379529  0.13967115  0.69243539     0.18500
C208        C  0.55349620  0.16831640  0.77502051     0.26500
C209        C  0.54421442  0.16766387  0.81945835    -0.11200
C210        C  0.55291850  0.16107298  0.85828757    -0.25300
C211        C  0.57161434  0.15561745  0.85185783     0.37400
C212        C  0.58075519  0.15606486  0.80727353    -0.26900
F213        F  0.54472991  0.17504119  0.73857175    -0.19000
H214        H  0.52997241  0.17210764  0.82340187     0.16700
F215        F  0.58035176  0.14880077  0.88821835    -0.22700
H216        H  0.59445332  0.15088391  0.80303270     0.18500
C217        C  0.74910572  0.28439017  0.36747657    -0.26800
C218        C  0.75308800  0.26975797  0.39841329     0.06800
C219        C  0.77704768  0.27510989  0.40670466     0.26500
C220        C  0.79665600  0.29515091  0.38519396    -0.11300
C221        C  0.79271911  0.31029108  0.35537601    -0.25200
C222        C  0.76865368  0.30449138  0.34624063     0.37300
C223        C  0.73209086  0.24906421  0.42180689     0.06900
F224        F  0.78155077  0.26166570  0.43726768    -0.19000
H225        H  0.81498787  0.29942701  0.39348543     0.16700
F226        F  0.76396110  0.31843072  0.31734317    -0.22700
H227        H  0.73075500  0.28032568  0.36002079     0.18500
C228        C  0.71479878  0.25254992  0.44576767     0.26500
C229        C  0.69406106  0.23268072  0.46461760    -0.11200
C230        C  0.69008830  0.20893128  0.45995763    -0.25300
C231        C  0.70778867  0.20554077  0.43718956     0.37400
C232        C  0.72861425  0.22548888  0.41845502    -0.26900
F233        F  0.71787740  0.27517693  0.45068803    -0.19000
H234        H  0.68079524  0.23586268  0.48201784     0.16700
F235        F  0.70446772  0.18290052  0.43092244    -0.22700
H236        H  0.74161761  0.22241168  0.39975982     0.18500
C237        C  0.83692860  0.43317896  0.50905374    -0.26800
C238        C  0.83964041  0.42177231  0.54854595     0.06800
C239        C  0.84258883  0.40148181  0.54229243     0.26500
C240        C  0.84407943  0.39367901  0.49757064    -0.11300
C241        C  0.84255932  0.40579070  0.45806026    -0.25200
C242        C  0.83836113  0.42531137  0.46419150     0.37300
C243        C  0.84129292  0.43218415  0.59573938     0.06900
F244        F  0.84536560  0.38995665  0.57932094    -0.19000
H245        H  0.84700096  0.37839023  0.49393772     0.16700
F246        F  0.83654491  0.43738080  0.42705655    -0.22700
H247        H  0.83420972  0.44857593  0.51297262     0.18500
C248        C  0.85715057  0.45715381  0.60396415     0.26500
C249        C  0.85967730  0.46682248  0.64863664    -0.11200
C250        C  0.84660327  0.45190613  0.68638347    -0.25300
C251        C  0.83065377  0.42688460  0.67825528     0.37400
C252        C  0.82802290  0.41719361  0.63330269    -0.26900
F253        F  0.87089291  0.47215706  0.56907328    -0.19000
H254        H  0.87215466  0.48611282  0.65368238     0.16700
F255        F  0.81748556  0.41179478  0.71347997    -0.22700
H256        H  0.81554775  0.39793576  0.62779911     0.18500
C257        C  0.84535309  0.45775766  0.04462545    -0.26800
C258        C  0.85322190  0.44090534  0.05089969     0.06800
C259        C  0.86066843  0.43300680  0.01164470     0.26500
C260        C  0.85966894  0.44132546  0.96722305    -0.11300
C261        C  0.85166442  0.45803395  0.96086279    -0.25200
C262        C  0.84471512  0.46639060  0.00019197     0.37300
C263        C  0.85281462  0.43092516  0.09792289     0.06900
F264        F  0.86943895  0.41761238  0.01628899    -0.19000
H265        H  0.86560925  0.43498411  0.93776662     0.16700
F266        F  0.83686944  0.48254947  0.99574821    -0.22700
H267        H  0.83927222  0.46394699  0.07410092     0.18500
C268        C  0.86255687  0.44621692  0.13709342     0.26500
C269        C  0.86183916  0.43631688  0.18095051    -0.11200
C270        C  0.85166319  0.41104635  0.18663511    -0.25300
C271        C  0.84190740  0.39580447  0.14743845     0.37400
C272        C  0.84236162  0.40566765  0.10381912    -0.26900
F273        F  0.87341714  0.47076791  0.13281215    -0.19000
H274        H  0.86970123  0.44851760  0.21038017     0.16700
F275        F  0.83159104  0.37128963  0.15121297    -0.22700
H276        H  0.83430087  0.39344293  0.07449926     0.18500
C277        C  0.72586034  0.48984515  0.69052100    -0.26800
C278        C  0.73896424  0.50686847  0.72563379     0.06800
C279        C  0.73152546  0.52328436  0.73981330     0.26500
C280        C  0.71030260  0.52144763  0.72135262    -0.11300
C281        C  0.69615252  0.50313581  0.68881401    -0.25200
C282        C  0.70462032  0.48786726  0.67235660     0.37300
C283        C  0.75892026  0.50572941  0.74970003     0.06900
F284        F  0.74371395  0.53985534  0.77388149    -0.19000
H285        H  0.70412119  0.53334624  0.73474092     0.16700
F286        F  0.69189815  0.47037043  0.64003446    -0.22700
H287        H  0.73161347  0.47737346  0.67843488     0.18500
C288        C  0.75456139  0.48357945  0.76874582     0.26500
C289        C  0.77351064  0.48172741  0.78857972    -0.11200
C290        C  0.79730176  0.50184919  0.78975375    -0.25300
C291        C  0.80150398  0.52437701  0.77254326     0.37400
C292        C  0.78238318  0.52625137  0.75279988    -0.26900
F293        F  0.73191995  0.46358041  0.76776609    -0.19000
H294        H  0.76961409  0.46419573  0.80176757     0.16700
F295        F  0.82413970  0.54435453  0.77333055    -0.22700
H296        H  0.78606188  0.54351329  0.73852215     0.18500
C297        C  0.54557569  0.41751070  0.95065427    -0.26800
C298        C  0.57001761  0.42496108  0.94168735     0.06800
C299        C  0.58490333  0.42555929  0.97830411     0.26500
C300        C  0.57531466  0.41856886  0.02306263    -0.11300
C301        C  0.55075243  0.41076953  0.03189545    -0.25200
C302        C  0.53595787  0.41045605  0.99526032     0.37300
C303        C  0.58003329  0.43320405  0.89455963     0.06900
F304        F  0.60854742  0.43237737  0.97053906    -0.19000
H305        H  0.58698258  0.41878576  0.05061870     0.16700
F306        F  0.51229020  0.40370934  0.00257813    -0.22700
H307        H  0.53398932  0.41750350  0.92312045     0.18500
C308        C  0.56851015  0.41876158  0.85519237     0.26500
C309        C  0.57711081  0.42773052  0.81060381    -0.11200
C310        C  0.59724368  0.45124630  0.80463905    -0.25300
C311        C  0.60919961  0.46531363  0.84430239     0.37400
C312        C  0.60059096  0.45632758  0.88868445    -0.26900
F313        F  0.54892244  0.39603442  0.85990913    -0.19000
H314        H  0.56770503  0.41646290  0.78075489     0.16700
F315        F  0.62897731  0.48797692  0.84043050    -0.22700
H316        H  0.60960155  0.46778069  0.91857401     0.18500
C317        C  0.58030336  0.41601777  0.47747523    -0.26800
C318        C  0.58005676  0.43098553  0.44192163     0.06800
C319        C  0.58760513  0.45541503  0.45206640     0.26500
C320        C  0.59586401  0.46482159  0.49645472    -0.11300
C321        C  0.59636021  0.45003587  0.53202282    -0.25200
C322        C  0.58835477  0.42540614  0.52227358     0.37300
C323        C  0.57109217  0.42101340  0.39477265     0.06900
F324        F  0.58621220  0.47001634  0.41945004    -0.19000
H325        H  0.60145005  0.48369580  0.50324334     0.16700
F326        F  0.58867179  0.41054164  0.55561585    -0.22700
H327        H  0.57439793  0.39708681  0.47039733     0.18500
C328        C  0.58490551  0.43277705  0.35499095     0.26500
C329        C  0.57525685  0.42452518  0.31057674    -0.11200
C330        C  0.55168848  0.40437194  0.30495891    -0.25300
C331        C  0.53828751  0.39204737  0.34490677     0.37400
C332        C  0.54798239  0.40030899  0.38926569    -0.26900
F333        F  0.60770775  0.45233003  0.35910759    -0.19000
H334        H  0.58610810  0.43420978  0.28057838     0.16700
F335        F  0.51556470  0.37234023  0.34134929    -0.22700
H336        H  0.53707165  0.39098728  0.41945268     0.18500
C337        C  0.02340349  0.42926829  0.33970575    -0.26800
C338        C  0.00868567  0.43937675  0.33042459     0.06800
C339        C  0.01973323  0.46404254  0.31810807     0.26500
C340        C  0.04495481  0.47852131  0.31669331    -0.11300
C341        C  0.05989148  0.46882580  0.32724910    -0.25200
C342        C  0.04889798  0.44388000  0.33815993     0.37300
C343        C  0.98188502  0.42503382  0.33542662     0.06900
F344        F  0.00603716  0.47419940  0.30741009    -0.19000
H345        H  0.05279392  0.49751285  0.30742744     0.16700
F346        F  0.06266703  0.43377554  0.34843634    -0.22700
H347        H  0.01517162  0.41028159  0.34931460     0.18500
C348        C  0.96745743  0.40408318  0.30848560     0.26500
C349        C  0.94203774  0.39362552  0.30792871    -0.11200
C350        C  0.93085769  0.40403402  0.33411643    -0.25300
C351        C  0.94534205  0.42394347  0.36348386     0.37400
C352        C  0.97050222  0.43418132  0.36413950    -0.26900
F353        F  0.97798868  0.39472609  0.28060687    -0.19000
H354        H  0.93125616  0.37816298  0.28541525     0.16700
F355        F  0.93531396  0.43405078  0.39077986    -0.22700
H356        H  0.98130253  0.45002667  0.38581129     0.18500
C357        C  0.46289387  0.44356548  0.13027699    -0.26800
C358        C  0.44232052  0.43556713  0.15872439     0.06800
C359        C  0.43519307  0.41522105  0.18753455     0.26500
C360        C  0.44905723  0.40372810  0.18888125    -0.11300
C361        C  0.47031098  0.41258039  0.16201877    -0.25200
C362        C  0.47685172  0.43235535  0.13201447     0.37300
C363        C  0.42942595  0.44951561  0.15960671     0.06900
F364        F  0.41557860  0.40722441  0.21595854    -0.19000
H365        H  0.44370339  0.38851098  0.21215353     0.16700
F366        F  0.49673740  0.44085407  0.10412712    -0.25100
H367        H  0.46839056  0.45884257  0.10706559     0.18500
C368        C  0.44265512  0.47488477  0.16621465     0.26500
C369        C  0.43084272  0.48828726  0.16589858    -0.11200
C370        C  0.40556179  0.47680654  0.15908696    -0.25300
C371        C  0.39221663  0.45135338  0.15264339     0.37400
C372        C  0.40411979  0.43786197  0.15300895    -0.26900
F373        F  0.46703686  0.48672668  0.17388059    -0.19000
H374        H  0.44161983  0.50779358  0.17125862     0.16700
F375        F  0.36777150  0.43949341  0.14598692    -0.22700
H376        H  0.39363406  0.41834907  0.14750190     0.18500
C377        C  0.26695633  0.51446483  0.19078752    -0.26800
C378        C  0.25607574  0.50061375  0.23084893     0.06800
C379        C  0.26517815  0.48636355  0.24929694     0.26500
C380        C  0.28587972  0.48738707  0.22972380    -0.11300
C381        C  0.29783977  0.50272501  0.19173724    -0.25200
C382        C  0.28763787  0.51558868  0.17139752     0.37300
C383        C  0.23640806  0.50264226  0.25444598     0.06900
F384        F  0.25514358  0.47283332  0.28807950    -0.19000
H385        H  0.29342971  0.47737843  0.24611972     0.16700
F386        F  0.29810908  0.52992231  0.13368865    -0.22700
H387        H  0.25985113  0.52510419  0.17538051     0.18500
C388        C  0.24003137  0.52572397  0.26606504     0.26500
C389        C  0.22101228  0.52807248  0.28442459    -0.11200
C390        C  0.19790944  0.50750166  0.29170344    -0.25300
C391        C  0.19457711  0.48423972  0.28226842     0.37400
C392        C  0.21374151  0.48189606  0.26382521    -0.26900
F393        F  0.26198876  0.54611459  0.25919704    -0.19000
H394        H  0.22427569  0.54618671  0.29184126     0.16700
F395        F  0.17263649  0.46385075  0.28905583    -0.22700
H396        H  0.21062914  0.46395153  0.25529636     0.18500
C397        C  0.52379697  0.55618794  0.65638229    -0.26800
C398        C  0.54858519  0.56891142  0.66813238     0.06800
C399        C  0.55970288  0.59387654  0.67903718     0.26500
C400        C  0.54608365  0.60566803  0.67871121    -0.11300
C401        C  0.52114600  0.59277778  0.66771156    -0.25200
C402        C  0.51017160  0.56782958  0.65635311     0.37300
C403        C  0.56233833  0.55571524  0.66956963     0.06900
F404        F  0.58352270  0.60668980  0.69140109    -0.19000
H405        H  0.55498126  0.62480839  0.68768771     0.16700
F406        F  0.48624398  0.55454846  0.64484058    -0.22700
H407        H  0.51490830  0.53708048  0.64704279     0.18500
C408        C  0.55278964  0.53348287  0.69342870     0.26500
C409        C  0.56504372  0.52044556  0.69294580    -0.11200
C410        C  0.58718441  0.52925260  0.66898064    -0.25300
C411        C  0.59698093  0.55167074  0.64557549     0.37400
C412        C  0.58461191  0.56472753  0.64590469    -0.26900
F413        F  0.53168747  0.52444980  0.71778966    -0.19000
H414        H  0.55714788  0.50336713  0.71159269     0.16700
F415        F  0.61808368  0.56064129  0.62127726    -0.22700
H416        H  0.59215700  0.58162313  0.62674605     0.18500
C417        C  0.40438175  0.54955265  0.38361600    -0.26800
C418        C  0.41672289  0.57476441  0.39118495     0.06800
C419        C  0.42103512  0.59038730  0.35333906     0.26500
C420        C  0.41285682  0.58076436  0.30878597    -0.11300
C421        C  0.40044496  0.55545969  0.30123178    -0.25200
C422        C  0.39635017  0.53992817  0.33927232     0.37300
C423        C  0.42593085  0.58440805  0.43832570     0.06900
F424        F  0.43284472  0.61489922  0.35956805    -0.19000
H425        H  0.41624312  0.59311505  0.28022732     0.16700
F426        F  0.38472285  0.51537104  0.33384810    -0.22700
H427        H  0.40132900  0.53724655  0.41209548     0.18500
C428        C  0.41054156  0.57561256  0.47739853     0.26500
C429        C  0.41993581  0.58353418  0.52210329    -0.11200
C430        C  0.44483927  0.60020981  0.52860855    -0.25300
C431        C  0.46009752  0.60927872  0.48926840     0.37400
C432        C  0.45066532  0.60142791  0.44471638    -0.26900
F433        F  0.38641062  0.55942873  0.47228116    -0.19000
H434        H  0.40775446  0.57642407  0.55163972     0.16700
F435        F  0.48421113  0.62569287  0.49362026    -0.22700
H436        H  0.46286283  0.60821610  0.41515705     0.18500
C437        C  0.41078845  0.57560973  0.85408336    -0.26800
C438        C  0.42394018  0.58877595  0.89350071     0.06800
C439        C  0.44599062  0.61078735  0.88713159     0.26500
C440        C  0.45479950  0.61908484  0.84227072    -0.11300
C441        C  0.44196302  0.60559444  0.80282181    -0.25200
C442        C  0.41963397  0.58381940  0.80924294     0.37300
C443        C  0.41536350  0.57838158  0.94066709     0.06900
F444        F  0.45973472  0.62361182  0.92416354    -0.19000
H445        H  0.47210579  0.63579660  0.83848182     0.16700
F446        F  0.40670232  0.56993860  0.77240003    -0.22700
H447        H  0.39376170  0.55860396  0.85808164     0.18500
C448        C  0.41380383  0.59225233  0.97743108     0.26500
C449        C  0.40579164  0.58185850  0.02152312    -0.11200
C450        C  0.39881675  0.55739410  0.02949796    -0.25300
C451        C  0.40046435  0.54362002  0.99272511     0.37400
C452        C  0.40866040  0.55404614  0.94897762    -0.26900
F453        F  0.41928091  0.61556878  0.97043590    -0.19000
H454        H  0.40457901  0.59280452  0.04919686     0.16700
F455        F  0.39468713  0.52017370  0.99921705    -0.22700
H456        H  0.41003209  0.54309604  0.92151007     0.18500
C457        C  0.55580911  0.02864953  0.50110952    -0.26800
C458        C  0.57091571  0.01851554  0.50265314     0.06800
C459        C  0.59631387  0.03415474  0.50072776     0.26500
C460        C  0.60624135  0.05949231  0.49858684    -0.11300
C461        C  0.59100824  0.06957656  0.49798977    -0.25200
C462        C  0.56559671  0.05376149  0.49906025     0.37300
C463        C  0.55952733  0.99163962  0.50634617     0.06900
F464        F  0.61150590  0.02502811  0.50210215    -0.19000
H465        H  0.62582951  0.07121223  0.49752618     0.16700
F466        F  0.55000449  0.06243973  0.49864754    -0.22700
H467        H  0.53619358  0.01700474  0.50146686     0.18500
C468        C  0.54066432  0.97876323  0.53856714     0.26500
C469        C  0.52702370  0.95342128  0.53706211    -0.11200
C470        C  0.53210198  0.94022742  0.50411073    -0.25300
C471        C  0.55219367  0.95289044  0.47427902     0.37400
C472        C  0.56566809  0.97846189  0.47518277    -0.26900
F473        F  0.53498335  0.99074276  0.57087579    -0.19000
H474        H  0.51201529  0.94409008  0.56120633     0.16700
F475        F  0.55788392  0.94072548  0.44247572    -0.22700
H476        H  0.58011429  0.98796037  0.45004200     0.18500
C477        C  0.50829435  0.74262022  0.62536568    -0.26800
C478        C  0.49329414  0.74133937  0.58828062     0.06800
C479        C  0.47766529  0.71861094  0.56773474     0.26500
C480        C  0.47594933  0.69748879  0.58560156    -0.11300
C481        C  0.49012464  0.69845361  0.62372915    -0.25200
C482        C  0.50682050  0.72128752  0.64295261     0.37300
C483        C  0.49250068  0.76310791  0.57235086     0.06900
F484        F  0.46383465  0.71682006  0.53040719    -0.19000
H485        H  0.46338704  0.68019643  0.56947450     0.16700
F486        F  0.52072546  0.72285271  0.67994765    -0.22700
H487        H  0.52049075  0.75998682  0.64163432     0.18500
C488        C  0.47011247  0.76246433  0.57118684     0.26500
C489        C  0.46853302  0.78175222  0.55229273    -0.11200
C490        C  0.48926194  0.80242867  0.53474771    -0.25300
C491        C  0.51191901  0.80351906  0.53726144     0.37400
C492        C  0.51345934  0.78394266  0.55591199    -0.26900
F493        F  0.44967610  0.74313489  0.58871579    -0.19000
H494        H  0.45094615  0.78055774  0.55197572     0.16700
F495        F  0.53246186  0.82325909  0.52126394    -0.22700
H496        H  0.53088843  0.78480653  0.55659587     0.18500
C497        C  0.46369173  0.03111583  0.02175469    -0.26800
C498        C  0.44228003  0.01825399  0.99563084     0.06800
C499        C  0.43398368  0.03138185  0.96977251     0.26500
C500        C  0.44727716  0.05695164  0.96955381    -0.11300
C501        C  0.46913368  0.06974006  0.99465454    -0.25200
C502        C  0.47707669  0.05648144  0.02113124     0.37300
C503        C  0.42935821  0.99122561  0.99494260     0.06900
F504        F  0.41361282  0.01951273  0.94331787    -0.19000
H505        H  0.44085206  0.06671133  0.94876099     0.16700
F506        F  0.49780635  0.06797394  0.04672925    -0.22700
H507        H  0.47019183  0.02143273  0.04261869     0.18500
C508        C  0.44232023  0.97911511  0.98618953     0.26500
C509        C  0.43052974  0.95376565  0.98758841    -0.11200
C510        C  0.40552355  0.93978637  0.99756323    -0.25300
C511        C  0.39243686  0.95185044  0.00600672     0.37400
C512        C  0.40431698  0.97736537  0.00464372    -0.26900
F513        F  0.46639729  0.99179227  0.97551443    -0.19000
H514        H  0.44110088  0.94507014  0.98060347     0.16700
F515        F  0.36826248  0.93910346  0.01566247    -0.22700
H516        H  0.39404373  0.98633284  0.01194175     0.18500
C517        C  0.40894866  0.84537429  0.67880828    -0.26800
C518        C  0.42443013  0.85449012  0.71767625     0.06800
C519        C  0.44961820  0.86481086  0.71115960     0.26500
C520        C  0.45904074  0.86577518  0.66690327    -0.11300
C521        C  0.44368598  0.85667639  0.62791780    -0.25200
C522        C  0.41843768  0.84646691  0.63422814     0.37300
C523        C  0.41449229  0.85359795  0.76487052     0.06900
F524        F  0.46527115  0.87462405  0.74744001    -0.19000
H525        H  0.47855643  0.87392199  0.66319605     0.16700
F526        F  0.40292009  0.83744593  0.59761264    -0.22700
H527        H  0.38945835  0.83722277  0.68305124     0.18500
C528        C  0.39862139  0.86251368  0.77300524     0.26500
C529        C  0.39050268  0.86284738  0.81804728    -0.11200
C530        C  0.39804944  0.85439086  0.85601430    -0.25300
C531        C  0.41366003  0.84512872  0.84775515     0.37400
C532        C  0.42169126  0.84469652  0.80258135    -0.26900
F533        F  0.39170645  0.87180576  0.73774205    -0.19000
H534        H  0.37853287  0.87013352  0.82324085     0.16700
F535        F  0.42146502  0.83680463  0.88321323    -0.22700
H536        H  0.43372804  0.83751991  0.79704015     0.18500
C537        C  0.43049984  0.85493082  0.18035461    -0.26800
C538        C  0.41619772  0.85135702  0.22015772     0.06800
C539        C  0.39257608  0.84761233  0.21441971     0.26500
C540        C  0.38380959  0.84802198  0.17003710    -0.11300
C541        C  0.39820746  0.85186606  0.13028953    -0.25200
C542        C  0.42162894  0.85506692  0.13588961     0.37300
C543        C  0.42627414  0.85237082  0.26742155     0.06900
F544        F  0.37781981  0.84329656  0.25169058    -0.19000
H545        H  0.36567143  0.84535460  0.16679460     0.16700
F546        F  0.43636968  0.85926555  0.09864987    -0.22700
H547        H  0.44887927  0.85826952  0.18374136     0.18500
C548        C  0.43861627  0.83976699  0.27756366     0.26500
C549        C  0.44848505  0.84142568  0.32184951    -0.11200
C550        C  0.44599890  0.85538097  0.35712975    -0.25300
C551        C  0.43364514  0.86795671  0.34704044     0.37400
C552        C  0.42403521  0.86652605  0.30264845    -0.26900
F553        F  0.44070790  0.82541714  0.24499583    -0.19000
H554        H  0.45784558  0.83151769  0.32873258     0.16700
F555        F  0.43152253  0.88230439  0.37957856    -0.22700
H556        H  0.41517216  0.87689369  0.29555946     0.18500
C557        C  0.97147399  0.57271800  0.84831825    -0.26800
C558        C  0.98516987  0.56450491  0.82400755     0.06800
C559        C  0.97307107  0.54310663  0.79736181     0.26500
C560        C  0.94776025  0.52969971  0.79631312    -0.11300
C561        C  0.93386676  0.53728567  0.82169433    -0.25200
C562        C  0.94591789  0.55918819  0.84728514     0.37300
C563        C  0.01196225  0.57705491  0.82828111     0.06900
F564        F  0.98581772  0.53503503  0.77257846    -0.19000
H565        H  0.93899276  0.51309377  0.77587783     0.16700
F566        F  0.93312888  0.56692908  0.87281307    -0.22700
H567        H  0.98056497  0.58911689  0.86928128     0.18500
C568        C  0.02697833  0.60101392  0.81256704     0.26500
C569        C  0.05235769  0.61131058  0.81203178    -0.11200
C570        C  0.06302811  0.59784874  0.82730614    -0.25300
C571        C  0.04783285  0.57422211  0.84499067     0.37400
C572        C  0.02263654  0.56402175  0.84525472    -0.26900
F573        F  0.01707050  0.61398353  0.79583279    -0.19000
H574        H  0.06360228  0.62956402  0.79865407     0.16700
F575        F  0.05719136  0.56074032  0.86171210    -0.22700
H576        H  0.01130858  0.54562523  0.85801411     0.18500
C577        C  0.26545465  0.78753889  0.90786910    -0.26800
C578        C  0.25655865  0.76402414  0.92570655     0.06800
C579        C  0.26777722  0.76101823  0.96516647     0.26500
C580        C  0.28854992  0.78085906  0.98421133    -0.11300
C581        C  0.29837077  0.80415291  0.96474185    -0.25200
C582        C  0.28617694  0.80749903  0.92721771     0.37300
C583        C  0.23732141  0.74234831  0.90075541     0.06900
F584        F  0.25904351  0.73867570  0.98442280    -0.19000
H585        H  0.29745634  0.77784292  0.01330683     0.16700
F586        F  0.29535695  0.82963254  0.90682724    -0.22700
H587        H  0.25718026  0.79023580  0.87735552     0.18500
C588        C  0.21439283  0.73952269  0.89101929     0.26500
C589        C  0.19613436  0.71793983  0.87032912    -0.11200
C590        C  0.20057106  0.69900445  0.85851096    -0.25300
C591        C  0.22401329  0.70256138  0.86619080     0.37400
C592        C  0.24203446  0.72392843  0.88712574    -0.26900
F593        F  0.20931961  0.75710770  0.90335963    -0.19000
H594        H  0.17832059  0.71576820  0.86482015     0.16700
F595        F  0.22945615  0.68510916  0.85490277    -0.22700
H596        H  0.25975498  0.72598485  0.89334187     0.18500
C597        C  0.12972216  0.54478870  0.10386600    -0.26800
C598        C  0.14441441  0.56980931  0.09556235     0.06800
C599        C  0.15738154  0.58543743  0.13273258     0.26500
C600        C  0.15568945  0.57605538  0.17738826    -0.11300
C601        C  0.14105459  0.55095138  0.18573171    -0.25200
C602        C  0.12796942  0.53538702  0.14840370     0.37300
C603        C  0.14515653  0.57954560  0.04855449     0.06900
F604        F  0.17202396  0.60971749  0.12565891    -0.19000
H605        H  0.16603538  0.58841763  0.20532555     0.16700
F606        F  0.11320258  0.51107565  0.15483842    -0.22700
H607        H  0.11923184  0.53253866  0.07589214     0.18500
C608        C  0.15067391  0.57010593  0.00902868     0.26500
C609        C  0.15053258  0.57912006  0.96475349    -0.11200
C610        C  0.14465958  0.59750143  0.95920147    -0.25300
C611        C  0.13904957  0.60679319  0.99896745     0.37400
C612        C  0.13940719  0.59792814  0.04302185    -0.26900
F613        F  0.15648452  0.55240121  0.01331311    -0.19000
H614        H  0.15487261  0.57161486  0.93484032     0.16700
F615        F  0.13301367  0.62436952  0.99553420    -0.22700
H616        H  0.13472224  0.60514448  0.07292067     0.18500
C617        C  0.14788474  0.56900331  0.63548105    -0.26800
C618        C  0.15458226  0.58463472  0.59693449     0.06800
C619        C  0.16076500  0.60900559  0.60436074     0.26500
C620        C  0.15929380  0.61714425  0.64889980    -0.11300
C621        C  0.15210389  0.60138065  0.68722089    -0.25200
C622        C  0.14684112  0.57727046  0.68019309     0.37300
C623        C  0.15372104  0.57509085  0.54904564     0.06900
F624        F  0.16834497  0.62504684  0.56858448    -0.19000
H625        H  0.16375294  0.63586198  0.65338837     0.16700
F626        F  0.13965630  0.56133018  0.71609839    -0.22700
H627        H  0.14266633  0.55007846  0.63083469     0.18500
C628        C  0.16312188  0.55969353  0.53920864     0.26500
C629        C  0.16078766  0.54977534  0.49462911    -0.11200
C630        C  0.14944768  0.55528893  0.45871416    -0.25300
C631        C  0.14048987  0.57105126  0.46823834     0.37400
C632        C  0.14244227  0.58061970  0.51296854    -0.26900
F633        F  0.17484846  0.55444620  0.57245704    -0.19000
H634        H  0.16798528  0.53782409  0.48812163     0.16700
F635        F  0.12897111  0.57649571  0.43487370    -0.22700
H636        H  0.13453098  0.59192489  0.51966204     0.18500
loop_ 
_geom_bond_atom_site_label_1 
_geom_bond_atom_site_label_2 
_geom_bond_distance 
_geom_bond_site_symmetry_2 
_ccdc_geom_bond_type 
O1            C4   1.270       .  A
O1           Cd6   2.495       .  S
C2           O11   1.267       .  A
C2            O7   1.266       .  A
C2          C621   1.485       .  S
O3            C9   1.269       .  A
O3           Cd6   2.507       .  S
C4           O12   1.263       .  A
C4          C610   1.481       .  S
C5           O10   1.269       .  A
C5            O8   1.265       .  A
C5          C590   1.488       .  S
Cd6          O13   2.423       .  S
Cd6          O12   2.414       .  S
Cd6          O11   2.475       .  S
Cd6           O7   2.482       .  S
Cd6          O10   2.501       .  S
Cd6           O8   2.443       .  S
C9           O13   1.263       .  A
C9          C570   1.483       .  S
O14          C17   1.270       .  A
O14         Cd19   2.500       .  S
C15          O24   1.267       .  A
C15          O20   1.269       .  A
C15         C541   1.486       .  S
O16          C22   1.264       .  A
O16         Cd19   2.422       .  S
C17          O25   1.263       .  A
C17         C530   1.483       .  S
C18          O23   1.267       .  A
C18          O21   1.266       .  A
C18         C581   1.481       .  S
Cd19         O26   2.498   1_556  S
Cd19         O25   2.429       .  S
Cd19         O24   2.467   1_556  S
Cd19         O20   2.482   1_556  S
Cd19         O23   2.480       .  S
Cd19         O21   2.458       .  S
C22          O26   1.269   1_556  A
C22         C510   1.483       .  S
O27          C30   1.271       .  A
O27         Cd32   2.497       .  S
C28          O37   1.266       .  A
C28          O33   1.266       .  A
C28         C550   1.484       .  S
O29          C35   1.269       .  A
O29         Cd32   2.518       .  S
C30          O38   1.265       .  A
C30         C521   1.482       .  S
C31          O36   1.269       .  A
C31          O34   1.265       .  A
C31         C490   1.485       .  S
Cd32         O39   2.414       .  S
Cd32         O38   2.411       .  S
Cd32         O37   2.488       .  S
Cd32         O33   2.479       .  S
Cd32         O36   2.503       .  S
Cd32         O34   2.429       .  S
C35          O39   1.262       .  A
C35         C470   1.479       .  S
O40          C43   1.271       .  A
O40         Cd45   2.482       .  S
C41          O50   1.266       .  A
C41          O46   1.267       .  A
C41         C441   1.486       .  S
O42          C48   1.271       .  A
O42         Cd45   2.509       .  S
C43          O51   1.265       .  A
C43         C430   1.481       .  S
C44          O49   1.271       .  A
C44          O47   1.264       .  A
C44         C481   1.481       .  S
Cd45         O52   2.428       .  S
Cd45         O51   2.417       .  S
Cd45         O50   2.466       .  S
Cd45         O46   2.476       .  S
Cd45         O49   2.527       .  S
Cd45         O47   2.417       .  S
C48          O52   1.264       .  A
C48         C401   1.487       .  S
O53          C56   1.269       .  A
O53         Cd58   2.490       .  S
C54          O63   1.262       .  A
C54          O59   1.269       .  A
C54         C421   1.481       .  S
O55          C61   1.266       .  A
O55         Cd58   2.490       .  S
C56          O64   1.266       .  A
C56         C450   1.482       .  S
C57          O62   1.270       .  A
C57          O60   1.266       .  A
C57         C370   1.482       .  S
Cd58         O65   2.454       .  S
Cd58         O64   2.443       .  S
Cd58         O63   2.419       .  S
Cd58         O59   2.500       .  S
Cd58         O62   2.489       .  S
Cd58         O60   2.418       .  S
C61          O65   1.264       .  A
C61         C381   1.480       .  S
O66          C69   1.269       .  A
O66         Cd71   2.488       .  S
C67          O76   1.266       .  A
C67          O72   1.267       .  A
C67         C630   1.483       .  S
O68          C74   1.269       .  A
O68         Cd71   2.506       .  S
C69          O77   1.264       .  A
C69         C601   1.482       .  S
C70          O75   1.269       .  A
C70          O73   1.265       .  A
C70         C390   1.484       .  S
Cd71         O78   2.412       .  S
Cd71         O77   2.434       .  S
Cd71         O76   2.471       .  S
Cd71         O72   2.478       .  S
Cd71         O75   2.493       .  S
Cd71         O73   2.430       .  S
C74          O78   1.264       .  A
C74         C341   1.482       .  S
O79          C82   1.268       .  A
O79         Cd84   2.489       .  S
C80          O89   1.263       .  A
C80          O85   1.270       .  A
C80         C310   1.479       .  S
O81          C87   1.268       .  A
O81         Cd84   2.486       .  S
C82          O90   1.266       .  A
C82         C321   1.479       .  S
C83          O88   1.269       .  A
C83          O86   1.265       .  A
C83         C410   1.484       .  S
Cd84         O91   2.444       .  S
Cd84         O90   2.428       .  S
Cd84         O89   2.412       .  S
Cd84         O85   2.486       .  S
Cd84         O88   2.497       .  S
Cd84         O86   2.439       .  S
C87          O91   1.265       .  A
C87         C281   1.480       .  S
O92          C95   1.268       .  A
O92         Cd97   2.478       .  S
C93         O102   1.265       .  A
C93          O98   1.270       .  A
C93         C250   1.486       .  S
O94         C100   1.268       .  A
O94         Cd97   2.486       .  S
C95         O103   1.265       .  A
C95         C261   1.485       .  S
C96         O101   1.270       .  A
C96          O99   1.264       .  A
C96         C561   1.479       .  S
Cd97        O104   2.433       .  S
Cd97        O103   2.472       .  S
Cd97        O102   2.435       .  S
Cd97         O98   2.506       .  S
Cd97        O101   2.503       .  S
Cd97         O99   2.406       .  S
C100        O104   1.266       .  A
C100        C290   1.483       .  S
O105        C108   1.267       .  A
O105       Cd110   2.485       .  S
C106        O115   1.263       .  A
C106        O111   1.270       .  A
C106        C241   1.482       .  S
O107        C113   1.268       .  A
O107       Cd110   2.474       .  S
C108        O116   1.267       .  A
C108        C270   1.487       .  S
C109        O114   1.269       .  A
C109        O112   1.263       .  A
C109        C350   1.480       .  S
Cd110       O117   2.442       .  S
Cd110       O116   2.478       .  S
Cd110       O115   2.424       .  S
Cd110       O111   2.496       .  S
Cd110       O114   2.511       .  S
Cd110       O112   2.408       .  S
C113        O117   1.266       .  A
C113        C221   1.481       .  S
O118        C121   1.270       .  A
O118       Cd123   2.491       .  S
C119        O128   1.267       .  A
C119        O124   1.268       .  A
C119        C201   1.481       .  S
O120        C126   1.270       .  A
O120       Cd123   2.506       .  S
C121        O129   1.263       .  A
C121        C190   1.481       .  S
C122        O127   1.270       .  A
C122        O125   1.266       .  A
C122        C230   1.481       .  S
Cd123       O130   2.416       .  S
Cd123       O129   2.416       .  S
Cd123       O128   2.468       .  S
Cd123       O124   2.464       .  S
Cd123       O127   2.475       .  S
Cd123       O125   2.432       .  S
C126        O130   1.263       .  A
C126        C461   1.484       .  S
O131        C134   1.266       .  A
O131       Cd136   2.478       .  S
C132        O141   1.266       .  A
C132        O137   1.271       .  A
C132        C181   1.480       .  S
O133        C139   1.270   1_556  A
O133       Cd136   2.517       .  S
C134        O142   1.266       .  A
C134        C210   1.484       .  S
C135        O140   1.270       .  A
C135        O138   1.261   1_556  A
C135        C501   1.482       .  S
Cd136       O143   2.413   1_556  S
Cd136       O142   2.468       .  S
Cd136       O141   2.417   1_556  S
Cd136       O137   2.471   1_556  S
Cd136       O140   2.519       .  S
Cd136       O138   2.410   1_556  S
C139        O143   1.264       .  A
C139        C170   1.475       .  S
O144        C147   1.268       .  A
O144       Cd149   2.481       .  S
C145        O154   1.264       .  A
C145        O150   1.270       .  A
C145        C301   1.475       .  S
O146        C152   1.269       .  A
O146       Cd149   2.495       .  S
C147        O155   1.265       .  A
C147        C330   1.484       .  S
C148        O153   1.270       .  A
C148        O151   1.264       .  A
C148        C361   1.476       .  S
Cd149       O156   2.418       .  S
Cd149       O155   2.452       .  S
Cd149       O154   2.414       .  S
Cd149       O150   2.471       .  S
Cd149       O153   2.493       .  S
Cd149       O151   2.415       .  S
C152        O156   1.264       .  A
C152        C161   1.482       .  S
C157        C158   1.405       .  A
C157        C162   1.405       .  A
C157        H167   1.083       .  S
C158        C163   1.483       .  S
C158        C159   1.406       .  A
C159        C160   1.392       .  A
C159        F164   1.358       .  S
C160        C161   1.405       .  A
C160        H165   1.083       .  S
C161        C162   1.410       .  A
C162        F166   1.357       .  S
C163        C168   1.405       .  A
C163        C172   1.408       .  A
C168        C169   1.392       .  A
C168        F173   1.358       .  S
C169        C170   1.403       .  A
C169        H174   1.084       .  S
C170        C171   1.406       .  A
C171        C172   1.406       .  A
C171        F175   1.357   1_554  S
C172        H176   1.083       .  S
C177        C178   1.403       .  A
C177        C182   1.395       .  A
C177        H187   1.083       .  S
C178        C183   1.486       .  S
C178        C179   1.410       .  A
C179        C180   1.399       .  A
C179        F184   1.357       .  S
C180        C181   1.404       .  A
C180        H185   1.083       .  S
C181        C182   1.410       .  A
C182        F186   1.358       .  S
C183        C188   1.410       .  A
C183        C192   1.403       .  A
C188        C189   1.400       .  A
C188        F193   1.357       .  S
C189        C190   1.404       .  A
C189        H194   1.083       .  S
C190        C191   1.410       .  A
C191        C192   1.394       .  A
C191        F195   1.358       .  S
C192        H196   1.082       .  S
C197        C198   1.406       .  A
C197        C202   1.398       .  A
C197        H207   1.083       .  S
C198        C203   1.489       .  S
C198        C199   1.408       .  A
C199        C200   1.401       .  A
C199        F204   1.357       .  S
C200        C201   1.405       .  A
C200        H205   1.083       .  S
C201        C202   1.407       .  A
C202        F206   1.357       .  S
C203        C208   1.408       .  A
C203        C212   1.406       .  A
C208        C209   1.398       .  A
C208        F213   1.357       .  S
C209        C210   1.405       .  A
C209        H214   1.083       .  S
C210        C211   1.409       .  A
C211        C212   1.401       .  A
C211        F215   1.357       .  S
C212        H216   1.083       .  S
C217        C218   1.404       .  A
C217        C222   1.397       .  A
C217        H227   1.083       .  S
C218        C223   1.482       .  S
C218        C219   1.406       .  A
C219        C220   1.400       .  A
C219        F224   1.358       .  S
C220        C221   1.407       .  A
C220        H225   1.083       .  S
C221        C222   1.408       .  A
C222        F226   1.357       .  S
C223        C228   1.406       .  A
C223        C232   1.404       .  A
C228        C229   1.397       .  A
C228        F233   1.358       .  S
C229        C230   1.406       .  A
C229        H234   1.083       .  S
C230        C231   1.409       .  A
C231        C232   1.400       .  A
C231        F235   1.357       .  S
C232        H236   1.083       .  S
C237        C238   1.408       .  A
C237        C242   1.401       .  A
C237        H247   1.083       .  S
C238        C243   1.488       .  S
C238        C239   1.406       .  A
C239        C240   1.397       .  A
C239        F244   1.357       .  S
C240        C241   1.407       .  A
C240        H245   1.083       .  S
C241        C242   1.406       .  A
C242        F246   1.357       .  S
C243        C248   1.406       .  A
C243        C252   1.407       .  A
C248        C249   1.396       .  A
C248        F253   1.358       .  S
C249        C250   1.406       .  A
C249        H254   1.083       .  S
C250        C251   1.409       .  A
C251        C252   1.403       .  A
C251        F255   1.357       .  S
C252        H256   1.083       .  S
C257        C258   1.406       .  A
C257        C262   1.402       .  A
C257        H267   1.083       .  S
C258        C263   1.491       .  S
C258        C259   1.408       .  A
C259        C260   1.399   1_554  A
C259        F264   1.357       .  S
C260        C261   1.404       .  A
C260        H265   1.083       .  S
C261        C262   1.409   1_556  A
C262        F266   1.357   1_554  S
C263        C268   1.409       .  A
C263        C272   1.405       .  A
C268        C269   1.403       .  A
C268        F273   1.358       .  S
C269        C270   1.407       .  A
C269        H274   1.083       .  S
C270        C271   1.408       .  A
C271        C272   1.399       .  A
C271        F275   1.357       .  S
C272        H276   1.083       .  S
C277        C278   1.404       .  A
C277        C282   1.396       .  A
C277        H287   1.084       .  S
C278        C283   1.482       .  S
C278        C279   1.405       .  A
C279        C280   1.402       .  A
C279        F284   1.357       .  S
C280        C281   1.407       .  A
C280        H285   1.083       .  S
C281        C282   1.407       .  A
C282        F286   1.358       .  S
C283        C288   1.405       .  A
C283        C292   1.405       .  A
C288        C289   1.394       .  A
C288        F293   1.358       .  S
C289        C290   1.405       .  A
C289        H294   1.083       .  S
C290        C291   1.410       .  A
C291        C292   1.403       .  A
C291        F295   1.357       .  S
C292        H296   1.083       .  S
C297        C298   1.402       .  A
C297        C302   1.395       .  A
C297        H307   1.084       .  S
C298        C303   1.477       .  S
C298        C299   1.406       .  A
C299        C300   1.398   1_556  A
C299        F304   1.357       .  S
C300        C301   1.404       .  A
C300        H305   1.083       .  S
C301        C302   1.409   1_554  A
C302        F306   1.358   1_556  S
C303        C308   1.407       .  A
C303        C312   1.400       .  A
C308        C309   1.399       .  A
C308        F313   1.358       .  S
C309        C310   1.405       .  A
C309        H314   1.083       .  S
C310        C311   1.410       .  A
C311        C312   1.394       .  A
C311        F315   1.358       .  S
C312        H316   1.083       .  S
C317        C318   1.406       .  A
C317        C322   1.403       .  A
C317        H327   1.083       .  S
C318        C323   1.483       .  S
C318        C319   1.405       .  A
C319        C320   1.394       .  A
C319        F324   1.358       .  S
C320        C321   1.404       .  A
C320        H325   1.083       .  S
C321        C322   1.408       .  A
C322        F326   1.357       .  S
C323        C328   1.407       .  A
C323        C332   1.402       .  A
C328        C329   1.399       .  A
C328        F333   1.358       .  S
C329        C330   1.406       .  A
C329        H334   1.083       .  S
C330        C331   1.410       .  A
C331        C332   1.398       .  A
C331        F335   1.357       .  S
C332        H336   1.083       .  S
C337        C338   1.405       .  A
C337        C342   1.406       .  A
C337        H347   1.083       .  S
C338        C343   1.480   1_455  S
C338        C339   1.404       .  A
C339        C340   1.390       .  A
C339        F344   1.358       .  S
C340        C341   1.404       .  A
C340        H345   1.083       .  S
C341        C342   1.410       .  A
C342        F346   1.357       .  S
C343        C348   1.406       .  A
C343        C352   1.401       .  A
C348        C349   1.405       .  A
C348        F353   1.357       .  S
C349        C350   1.407       .  A
C349        H354   1.083       .  S
C350        C351   1.408       .  A
C351        C352   1.391       .  A
C351        F355   1.358       .  S
C352        H356   1.083       .  S
C357        C358   1.403       .  A
C357        C362   1.393       .  A
C357        H367   1.083       .  S
C358        C363   1.482       .  S
C358        C359   1.408       .  A
C359        C360   1.403       .  A
C359        F364   1.357       .  S
C360        C361   1.404       .  A
C360        H365   1.083       .  S
C361        C362   1.407       .  A
C362        F366   1.358       .  S
C363        C368   1.405       .  A
C363        C372   1.405       .  A
C368        C369   1.393       .  A
C368        F373   1.358       .  S
C369        C370   1.405       .  A
C369        H374   1.083       .  S
C370        C371   1.409       .  A
C371        C372   1.403       .  A
C371        F375   1.357       .  S
C372        H376   1.083       .  S
C377        C378   1.404       .  A
C377        C382   1.396       .  A
C377        H387   1.083       .  S
C378        C383   1.484       .  S
C378        C379   1.406       .  A
C379        C380   1.402       .  A
C379        F384   1.357       .  S
C380        C381   1.407       .  A
C380        H385   1.083       .  S
C381        C382   1.406       .  A
C382        F386   1.358       .  S
C383        C388   1.405       .  A
C383        C392   1.405       .  A
C388        C389   1.395       .  A
C388        F393   1.358       .  S
C389        C390   1.405       .  A
C389        H394   1.083       .  S
C390        C391   1.410       .  A
C391        C392   1.404       .  A
C391        F395   1.357       .  S
C392        H396   1.082       .  S
C397        C398   1.403       .  A
C397        C402   1.396       .  A
C397        H407   1.083       .  S
C398        C403   1.489       .  S
C398        C399   1.408       .  A
C399        C400   1.404       .  A
C399        F404   1.357       .  S
C400        C401   1.406       .  A
C400        H405   1.082       .  S
C401        C402   1.411       .  A
C402        F406   1.358       .  S
C403        C408   1.407       .  A
C403        C412   1.407       .  A
C408        C409   1.396       .  A
C408        F413   1.358       .  S
C409        C410   1.405       .  A
C409        H414   1.083       .  S
C410        C411   1.409       .  A
C411        C412   1.404       .  A
C411        F415   1.357       .  S
C412        H416   1.083       .  S
C417        C418   1.401       .  A
C417        C422   1.394       .  A
C417        H427   1.083       .  S
C418        C423   1.481       .  S
C418        C419   1.407       .  A
C419        C420   1.401       .  A
C419        F424   1.357       .  S
C420        C421   1.406       .  A
C420        H425   1.083       .  S
C421        C422   1.411       .  A
C422        F426   1.358       .  S
C423        C428   1.407       .  A
C423        C432   1.401       .  A
C428        C429   1.400       .  A
C428        F433   1.358       .  S
C429        C430   1.405       .  A
C429        H434   1.083       .  S
C430        C431   1.411       .  A
C431        C432   1.396       .  A
C431        F435   1.357       .  S
C432        H436   1.083       .  S
C437        C438   1.406       .  A
C437        C442   1.399       .  A
C437        H447   1.084       .  S
C438        C443   1.488       .  S
C438        C439   1.407       .  A
C439        C440   1.400       .  A
C439        F444   1.357       .  S
C440        C441   1.407       .  A
C440        H445   1.083       .  S
C441        C442   1.409       .  A
C442        F446   1.357       .  S
C443        C448   1.409       .  A
C443        C452   1.404       .  A
C448        C449   1.403   1_556  A
C448        F453   1.357       .  S
C449        C450   1.406       .  A
C449        H454   1.083       .  S
C450        C451   1.407   1_554  A
C451        C452   1.396       .  A
C451        F455   1.358       .  S
C452        H456   1.083       .  S
C457        C458   1.403       .  A
C457        C462   1.392       .  A
C457        H467   1.083       .  S
C458        C463   1.486   1_545  S
C458        C459   1.408       .  A
C459        C460   1.405       .  A
C459        F464   1.357       .  S
C460        C461   1.407       .  A
C460        H465   1.083       .  S
C461        C462   1.409       .  A
C462        F466   1.358       .  S
C463        C468   1.406       .  A
C463        C472   1.407       .  A
C468        C469   1.393       .  A
C468        F473   1.358       .  S
C469        C470   1.404       .  A
C469        H474   1.084       .  S
C470        C471   1.407       .  A
C471        C472   1.405       .  A
C471        F475   1.357       .  S
C472        H476   1.083       .  S
C477        C478   1.408       .  A
C477        C482   1.409       .  A
C477        H487   1.083       .  S
C478        C483   1.486       .  S
C478        C479   1.404       .  A
C479        C480   1.393       .  A
C479        F484   1.358       .  S
C480        C481   1.404       .  A
C480        H485   1.083       .  S
C481        C482   1.408       .  A
C482        F486   1.357       .  S
C483        C488   1.405       .  A
C483        C492   1.406       .  A
C488        C489   1.394       .  A
C488        F493   1.358       .  S
C489        C490   1.405       .  A
C489        H494   1.083       .  S
C490        C491   1.410       .  A
C491        C492   1.407       .  A
C491        F495   1.357       .  S
C492        H496   1.083       .  S
C497        C498   1.402   1_554  A
C497        C502   1.393       .  A
C497        H507   1.083       .  S
C498        C503   1.485   1_545  S
C498        C499   1.408       .  A
C499        C500   1.404       .  A
C499        F504   1.357       .  S
C500        C501   1.406       .  A
C500        H505   1.083       .  S
C501        C502   1.409   1_556  A
C502        F506   1.358       .  S
C503        C508   1.406       .  A
C503        C512   1.406   1_556  A
C508        C509   1.394       .  A
C508        F513   1.358       .  S
C509        C510   1.406       .  A
C509        H514   1.083       .  S
C510        C511   1.409   1_556  A
C511        C512   1.403       .  A
C511        F515   1.357       .  S
C512        H516   1.083       .  S
C517        C518   1.407       .  A
C517        C522   1.403       .  A
C517        H527   1.083       .  S
C518        C523   1.485       .  S
C518        C519   1.404       .  A
C519        C520   1.394       .  A
C519        F524   1.358       .  S
C520        C521   1.406       .  A
C520        H525   1.083       .  S
C521        C522   1.408       .  A
C522        F526   1.357       .  S
C523        C528   1.405       .  A
C523        C532   1.407       .  A
C528        C529   1.397       .  A
C528        F533   1.358       .  S
C529        C530   1.408       .  A
C529        H534   1.083       .  S
C530        C531   1.407       .  A
C531        C532   1.400       .  A
C531        F535   1.357       .  S
C532        H536   1.083       .  S
C537        C538   1.406       .  A
C537        C542   1.401       .  A
C537        H547   1.083       .  S
C538        C543   1.492       .  S
C538        C539   1.409       .  A
C539        C540   1.400       .  A
C539        F544   1.357       .  S
C540        C541   1.406       .  A
C540        H545   1.083       .  S
C541        C542   1.409       .  A
C542        F546   1.357       .  S
C543        C548   1.409       .  A
C543        C552   1.406       .  A
C548        C549   1.402       .  A
C548        F553   1.357       .  S
C549        C550   1.405       .  A
C549        H554   1.083       .  S
C550        C551   1.408       .  A
C551        C552   1.400       .  A
C551        F555   1.357       .  S
C552        H556   1.083       .  S
C557        C558   1.405       .  A
C557        C562   1.405       .  A
C557        H567   1.083       .  S
C558        C563   1.478   1_655  S
C558        C559   1.403       .  A
C559        C560   1.391       .  A
C559        F564   1.358       .  S
C560        C561   1.404       .  A
C560        H565   1.083       .  S
C561        C562   1.409       .  A
C562        F566   1.357       .  S
C563        C568   1.405       .  A
C563        C572   1.401       .  A
C568        C569   1.404       .  A
C568        F573   1.357       .  S
C569        C570   1.407       .  A
C569        H574   1.082       .  S
C570        C571   1.410       .  A
C571        C572   1.394       .  A
C571        F575   1.358       .  S
C572        H576   1.084       .  S
C577        C578   1.404       .  A
C577        C582   1.403       .  A
C577        H587   1.083       .  S
C578        C583   1.485       .  S
C578        C579   1.407       .  A
C579        C580   1.398       .  A
C579        F584   1.358       .  S
C580        C581   1.404       .  A
C580        H585   1.083   1_556  S
C581        C582   1.410       .  A
C582        F586   1.357       .  S
C583        C588   1.406       .  A
C583        C592   1.402       .  A
C588        C589   1.405       .  A
C588        F593   1.357       .  S
C589        C590   1.409       .  A
C589        H594   1.083       .  S
C590        C591   1.410       .  A
C591        C592   1.395       .  A
C591        F595   1.357       .  S
C592        H596   1.083       .  S
C597        C598   1.401       .  A
C597        C602   1.396       .  A
C597        H607   1.083       .  S
C598        C603   1.481       .  S
C598        C599   1.407       .  A
C599        C600   1.400       .  A
C599        F604   1.358       .  S
C600        C601   1.405       .  A
C600        H605   1.083       .  S
C601        C602   1.410       .  A
C602        F606   1.357       .  S
C603        C608   1.407       .  A
C603        C612   1.400       .  A
C608        C609   1.401   1_554  A
C608        F613   1.358       .  S
C609        C610   1.406       .  A
C609        H614   1.083       .  S
C610        C611   1.410       .  A
C611        C612   1.394   1_556  A
C611        F615   1.358       .  S
C612        H616   1.083       .  S
C617        C618   1.407       .  A
C617        C622   1.401       .  A
C617        H627   1.083       .  S
C618        C623   1.493       .  S
C618        C619   1.409       .  A
C619        C620   1.400       .  A
C619        F624   1.357       .  S
C620        C621   1.405       .  A
C620        H625   1.083       .  S
C621        C622   1.409       .  A
C622        F626   1.357       .  S
C623        C628   1.409       .  A
C623        C632   1.407       .  A
C628        C629   1.401       .  A
C628        F633   1.357       .  S
C629        C630   1.405       .  A
C629        H634   1.083       .  S
C630        C631   1.407       .  A
C631        C632   1.399       .  A
C631        F635   1.357       .  S
C632        H636   1.083       .  S
