geometry optimzed in LAMMPS
_audit_creation_date              2020-12-01 
_audit_creation_method            'lammps2cif' 
_symmetry_space_group_name_H-M    'P1' 
_symmetry_Int_Tables_number       1 
_symmetry_cell_setting            triclinic 
loop_ 
_symmetry_equiv_pos_as_xyz 
  x,y,z 
_cell_length_a                    26.47808847 
_cell_length_b                    26.62487234844195 
_cell_length_c                    43.77391212427921 
_cell_angle_alpha                 89.88384964047894 
_cell_angle_beta                  90.24551487669673 
_cell_angle_gamma                 89.62219336438423 
loop_ 
_atom_site_label 
_atom_site_type_symbol 
_atom_site_fract_x 
_atom_site_fract_y 
_atom_site_fract_z 
_atom_site_charge 
O1          O  0.51313689  0.81704023  0.52115148    -0.82700
C2          C  0.45340218  0.75562613  0.13076868     0.96700
O3          O  0.44060876  0.79024273  0.11222564    -0.71800
O4          O  0.45976811  0.85305913  0.06748461    -0.75400
Al5        Al  0.44135431  0.78437433  0.06900551     1.49000
C6          C  0.49765180  0.87625112  0.07750838     0.91900
O7          O  0.60573765  0.77136453  0.08384619    -0.81600
O8          O  0.55792820  0.67551877  0.05721748    -0.75200
Al9        Al  0.55438067  0.79368472  0.05486681     1.90100
O10         O  0.56475483  0.71964329  0.11360097    -0.74200
O11         O  0.46230611  0.66810076  0.06272265    -0.74100
O12         O  0.46794410  0.71305650  0.12094484    -0.79700
O13         O  0.40342293  0.72324829  0.07034386    -0.77900
O14         O  0.50352480  0.75885488  0.07073517    -1.14100
O15         O  0.44050272  0.77728201  0.52556255    -0.73300
C16         C  0.47571183  0.79492918  0.50911662     0.97400
C17         C  0.60482500  0.74163154  0.10644937     0.93800
Al18       Al  0.51243679  0.69891294  0.08740523     1.55600
O19         O  0.53974709  0.85296950  0.07992213    -0.77900
C20         C  0.41675549  0.68088489  0.06067260     0.98000
C21         C  0.57470995  0.69399318  0.03273126     0.92900
O22         O  0.57292125  0.74072395  0.02780660    -0.83200
O23         O  0.81100686  0.51698473  0.25027613    -0.82700
C24         C  0.75232162  0.45851974  0.14036430     0.96700
O25         O  0.78689027  0.44556027  0.15899336    -0.71800
O26         O  0.84723213  0.46324456  0.20530613    -0.75400
Al27       Al  0.77910329  0.44433812  0.20193234     1.49000
C28         C  0.87013422  0.50078760  0.19510576     0.91900
O29         O  0.76499987  0.60705905  0.18744117    -0.81600
O30         O  0.66699743  0.55825187  0.21337557    -0.75200
Al31       Al  0.78629274  0.55658247  0.21662806     1.90100
O32         O  0.71212773  0.56737602  0.15746958    -0.74200
O33         O  0.66235352  0.46254469  0.20741488    -0.74100
O34         O  0.70847849  0.47019374  0.14987685    -0.79700
O35         O  0.71891491  0.40555776  0.19876379    -0.77900
O36         O  0.75223651  0.50584113  0.20042955    -1.14100
O37         O  0.77175954  0.44429483  0.24528167    -0.73300
C38         C  0.78962057  0.47903604  0.26200635     0.97400
C39         C  0.73487525  0.60687443  0.16495675     0.93800
Al40       Al  0.69220215  0.51379613  0.18326192     1.55600
O41         O  0.84647627  0.54232976  0.19229421    -0.77900
C42         C  0.67639880  0.41745852  0.20897445     0.98000
C43         C  0.68523916  0.57709107  0.23739412     0.92900
O44         O  0.73214448  0.57560995  0.24276265    -0.83200
O45         O  0.56989284  0.23016232  0.28119240    -0.82700
C46         C  0.45058661  0.21077464  0.38326444     0.96700
O47         O  0.46326745  0.25427015  0.37403362    -0.71800
O48         O  0.56058822  0.24865281  0.36692216    -0.75400
Al49       Al  0.50773649  0.27010307  0.34082680     1.49000
C50         C  0.60084891  0.22687450  0.35927157     0.91900
O51         O  0.53601092  0.11616998  0.33234758    -0.81600
O52         O  0.43916151  0.19313279  0.27812959    -0.75200
Al53       Al  0.55090217  0.17620240  0.30770514     1.90100
O54         O  0.45676510  0.11720475  0.31855333    -0.74200
O55         O  0.39941469  0.24587239  0.32421565    -0.74100
O56         O  0.43780322  0.17723304  0.36431237    -0.79700
O57         O  0.45664953  0.30171971  0.31632787    -0.77900
O58         O  0.49974385  0.21081167  0.32356773    -1.14100
O59         O  0.55336660  0.29438035  0.31104117    -0.73300
C60         C  0.57139889  0.27681492  0.28660958     0.97400
C61         C  0.49406984  0.09337725  0.32911135     0.93800
Al62       Al  0.43792200  0.18535203  0.32147525     1.55600
O63         O  0.60161127  0.19718464  0.33678055    -0.77900
C64         C  0.41123304  0.28865132  0.31475440     0.98000
C65         C  0.47450412  0.17474234  0.26191693     0.92900
O66         O  0.51146703  0.15177335  0.27424591    -0.83200
O67         O  0.73064280  0.39250144  0.99455311    -0.82700
C68         C  0.75104508  0.50723704  0.39013387     0.96700
O69         O  0.70733497  0.49607841  0.39973416    -0.71800
O70         O  0.71672875  0.39896576  0.40529229    -0.75400
Al71       Al  0.69306395  0.44972590  0.43197819     1.49000
C72         C  0.73761383  0.35855301  0.41356405     0.91900
O73         O  0.84831277  0.42326587  0.44182011    -0.81600
O74         O  0.77253712  0.52100482  0.99521527    -0.75200
Al75       Al  0.78732154  0.40753386  0.46600891     1.90100
O76         O  0.84567365  0.50200199  0.45530420    -0.74200
O77         O  0.71547555  0.55677620  0.44891514    -0.74100
O78         O  0.78545968  0.51985148  0.40881692    -0.79700
O79         O  0.66052758  0.49885165  0.45733421    -0.77900
O80         O  0.75237907  0.45813489  0.44978108    -1.14100
O81         O  0.66943943  0.40230957  0.46051547    -0.73300
C82         C  0.68421925  0.38994759  0.98763373     0.97400
C83         C  0.87037413  0.46556210  0.44485857     0.93800
Al84       Al  0.77718155  0.51979143  0.45186134     1.55600
O85         O  0.76667024  0.35740242  0.43660002    -0.77900
C86         C  0.67347353  0.54407736  0.45951224     0.98000
C87         C  0.79057902  0.48674938  0.01244627     0.92900
O88         O  0.81160107  0.44807828  0.00129588    -0.83200
O89         O  0.43838304  0.14928024  0.52376771    -0.82700
C90         C  0.50337099  0.21490544  0.13399116     0.96700
O91         O  0.51663649  0.18003298  0.11593908    -0.71800
O92         O  0.49957361  0.11636325  0.07143990    -0.75400
Al93       Al  0.51643090  0.18537950  0.07283430     1.49000
C94         C  0.46185051  0.09225968  0.08063951     0.91900
O95         O  0.35251189  0.19541820  0.08685688    -0.81600
O96         O  0.39750731  0.29224750  0.06021608    -0.75200
Al97       Al  0.40375948  0.17408344  0.05811120     1.90100
O98         O  0.39258499  0.24801942  0.11667972    -0.74200
O99         O  0.49361503  0.30145326  0.06544730    -0.74100
O100        O  0.48942843  0.25743541  0.12370734    -0.79700
O101        O  0.55291847  0.24704837  0.07432048    -0.77900
O102        O  0.45394586  0.20992387  0.07399470    -1.14100
O103        O  0.51140326  0.18888267  0.52832421    -0.73300
C104        C  0.47629868  0.17051052  0.51184203     0.97400
C105        C  0.35296068  0.22519699  0.10934737     0.93800
Al106      Al  0.44406581  0.26997081  0.09031411     1.55600
O107        O  0.41949897  0.11493708  0.08317449    -0.77900
C108        C  0.53946540  0.28923118  0.06435226     0.98000
C109        C  0.38108835  0.27339477  0.03573766     0.92900
O110        O  0.38402685  0.22671936  0.03090239    -0.83200
O111        O  0.14198895  0.45502617  0.24567272    -0.82700
C112        C  0.21032275  0.50637294  0.13636430     0.96700
O113        O  0.17445336  0.52105486  0.15348806    -0.71800
O114        O  0.10968632  0.50713845  0.19805730    -0.75400
Al115      Al  0.17835565  0.52476831  0.19666347     1.49000
C116        C  0.08637775  0.46872497  0.18955623     0.91900
O117        O  0.19051941  0.36161710  0.18600661    -0.81600
O118        O  0.28819624  0.41202759  0.21564216    -0.75200
Al119      Al  0.16834718  0.41347795  0.21371310     1.90100
O120        O  0.24883336  0.39829958  0.15858099    -0.74200
O121        O  0.29457291  0.50688035  0.20639424    -0.74100
O122        O  0.25295375  0.49420917  0.14768668    -0.79700
O123        O  0.23881768  0.56308001  0.19455709    -0.77900
O124        O  0.20452139  0.46301999  0.19761224    -1.14100
O125        O  0.18235706  0.52696487  0.24039235    -0.73300
C126        C  0.16373457  0.49279495  0.25732504     0.97400
C127        C  0.22328373  0.36017838  0.16511743     0.93800
Al128      Al  0.26615075  0.45372751  0.18314137     1.55600
O129        O  0.10995784  0.42710377  0.18768553    -0.77900
C130        C  0.28109349  0.55209582  0.20570455     0.98000
C131        C  0.26731823  0.39365158  0.23892568     0.92900
O132        O  0.21996508  0.39471395  0.24190077    -0.83200
O133        O  0.22845725  0.57278717  0.98953269    -0.82700
C134        C  0.20291490  0.46466919  0.38611619     0.96700
O135        O  0.24693983  0.47548138  0.39579818    -0.71800
O136        O  0.24708171  0.57192447  0.40601480    -0.75400
Al137      Al  0.26476880  0.51587563  0.43049954     1.49000
C138        C  0.22265474  0.61094572  0.41289045     0.91900
O139        O  0.10941479  0.54813836  0.43956451    -0.81600
O140        O  0.18904668  0.44247204  0.99180813    -0.75200
Al141      Al  0.17079922  0.56046623  0.46371161     1.90100
O142        O  0.10848157  0.46863024  0.45135452    -0.74200
O143        O  0.23549577  0.40803510  0.44401342    -0.74100
O144        O  0.16843363  0.45183641  0.40463571    -0.79700
O145        O  0.29366072  0.46194207  0.45369875    -0.77900
O146        O  0.20426597  0.50938268  0.44707907    -1.14100
O147        O  0.29095338  0.55701119  0.46176401    -0.73300
C148        C  0.27503304  0.57527285  0.98326478     0.97400
C149        C  0.08552171  0.50694681  0.44188106     0.93800
Al150      Al  0.17649497  0.44871016  0.44776488     1.55600
O151        O  0.19151125  0.61082079  0.43468820    -0.77900
C152        C  0.27829762  0.41751921  0.45465857     0.98000
C153        C  0.16999901  0.47680229  0.00850300     0.92900
O154        O  0.14926906  0.51521605  0.99674689    -0.83200
O155        O  0.38101738  0.74604779  0.27609475    -0.82700
C156        C  0.49935483  0.75790215  0.38001565     0.96700
O157        O  0.48580643  0.71529306  0.36983040    -0.71800
O158        O  0.38922902  0.72203850  0.36140651    -0.75400
Al159      Al  0.44211674  0.70195253  0.33554412     1.49000
C160        C  0.34939564  0.74520675  0.35437374     0.91900
O161        O  0.41428052  0.85627810  0.32937115    -0.81600
O162        O  0.51201250  0.78228510  0.27523845    -0.75200
Al163      Al  0.39979647  0.79804148  0.30367261     1.90100
O164        O  0.49419824  0.85619520  0.31728281    -0.74200
O165        O  0.55074132  0.72647537  0.32026696    -0.74100
O166        O  0.51233625  0.79258528  0.36180096    -0.79700
O167        O  0.49312714  0.67154343  0.31106343    -0.77900
O168        O  0.45063826  0.76229800  0.31956461    -1.14100
O169        O  0.39737170  0.67972010  0.30458295    -0.73300
C170        C  0.37988574  0.69916192  0.28039089     0.97400
C171        C  0.45626579  0.87917120  0.32750907     0.93800
Al172      Al  0.51261530  0.78748201  0.31871450     1.55600
O173        O  0.34859211  0.77583918  0.33221959    -0.77900
C174        C  0.53851012  0.68445710  0.30978726     0.98000
C175        C  0.47720803  0.80136438  0.25872154     0.92900
O176        O  0.43997029  0.82408013  0.27071140    -0.83200
C177        C  0.26848309  0.70016213  0.35204859    -0.27200
C178        C  0.30246923  0.72866482  0.36954970    -0.15300
C179        C  0.30000478  0.72573288  0.40159249     0.35400
C180        C  0.26663908  0.69180495  0.41551602    -0.26600
C181        C  0.23750577  0.65855585  0.39790564    -0.15900
C182        C  0.23678976  0.66440061  0.36575853     0.36500
N183        N  0.20729346  0.63239782  0.34629892    -0.90100
H184        H  0.27078138  0.70132995  0.32732762     0.17600
H185        H  0.26812512  0.68728734  0.44013409     0.17600
N186        N  0.33430739  0.75423973  0.41995119    -0.89200
H187        H  0.18223838  0.65535631  0.33403201     0.34900
H188        H  0.18491468  0.60808945  0.35911963     0.40000
H189        H  0.35605606  0.72914148  0.43296026     0.39700
H190        H  0.31303738  0.77623241  0.43498108     0.34500
C191        C  0.29344515  0.64172036  0.22075246    -0.27200
C192        C  0.31239666  0.59211628  0.21973492    -0.15300
C193        C  0.35790433  0.58089091  0.23524718     0.35400
C194        C  0.38008210  0.61722138  0.25396278    -0.26600
C195        C  0.35870453  0.66527955  0.25701868    -0.15900
C196        C  0.31640582  0.67837029  0.23910534     0.36500
N197        N  0.29500874  0.72782749  0.24072548    -0.90100
H198        H  0.25922060  0.65167552  0.20844187     0.17600
H199        H  0.41363119  0.60727272  0.26689105     0.17600
N200        N  0.38113732  0.53233566  0.23288624    -0.89200
H201        H  0.25755656  0.72469698  0.24790016     0.34900
H202        H  0.29484065  0.74310237  0.21869565     0.40000
H203        H  0.38403549  0.51707601  0.25485183     0.39700
H204        H  0.41770263  0.53709371  0.22446991     0.34500
C205        C  0.13533459  0.46788592  0.30904605    -0.27200
C206        C  0.17097163  0.49265328  0.29078910    -0.15300
C207        C  0.21723409  0.50753753  0.30389924     0.35400
C208        C  0.22685275  0.49699366  0.33482515    -0.26600
C209        C  0.19168454  0.47120642  0.35303607    -0.15900
C210        C  0.14508199  0.45725467  0.33991510     0.36500
N211        N  0.10767001  0.43180543  0.35759554    -0.90100
H212        H  0.10004171  0.45545929  0.29905103     0.17600
H213        H  0.26238166  0.50896905  0.34465915     0.17600
N214        N  0.25523592  0.53128437  0.28556157    -0.89200
H215        H  0.09992274  0.39750393  0.34703783     0.34900
H216        H  0.07461705  0.45351764  0.35726167     0.40000
H217        H  0.26829710  0.50468105  0.26986734     0.39700
H218        H  0.28642206  0.54121445  0.29891184     0.34500
C219        C  0.15259278  0.50933122  0.09157139    -0.27200
C220        C  0.20116459  0.49928284  0.10317068    -0.15300
C221        C  0.23740720  0.47612411  0.08381542     0.35400
C222        C  0.22425091  0.46459374  0.05354603    -0.26600
C223        C  0.17644938  0.47669671  0.04185562    -0.15900
C224        C  0.13998109  0.49864666  0.06133343     0.36500
N225        N  0.08946600  0.50965989  0.05130806    -0.90100
H226        H  0.12376660  0.52551629  0.10611659     0.17600
H227        H  0.25254279  0.44876601  0.03845897     0.17600
N228        N  0.28737824  0.46416773  0.09472146    -0.89200
H229        H  0.07430186  0.47734936  0.04138255     0.34900
H230        H  0.08996780  0.53848040  0.03514512     0.40000
H231        H  0.30605363  0.49809670  0.09842283     0.39700
H232        H  0.30806955  0.44492086  0.07808435     0.34500
C233        C  0.29687632  0.32930301  0.97394493    -0.27200
C234        C  0.30781763  0.37703874  0.47016525    -0.15300
C235        C  0.35848950  0.38378889  0.47949338     0.35400
C236        C  0.38115765  0.34846350  0.49926669    -0.26600
C237        C  0.35938511  0.30764741  0.01251571    -0.15900
C238        C  0.31855677  0.29380291  0.99384721     0.36500
N239        N  0.29727652  0.24463498  0.99615042    -0.90100
H240        H  0.26413461  0.31835958  0.96067006     0.17600
H241        H  0.41933011  0.35459149  0.50741510     0.17600
N242        N  0.38648675  0.42672128  0.46934890    -0.89200
H243        H  0.29867957  0.22800354  0.97455587     0.34900
H244        H  0.25933439  0.24850772  0.00230522     0.40000
H245        H  0.39047078  0.42380421  0.44566651     0.39700
H246        H  0.42300364  0.42621604  0.47855324     0.34500
C247        C  0.27041167  0.26816343  0.10638852    -0.27200
C248        C  0.30563430  0.24141066  0.12436400    -0.15300
C249        C  0.30330943  0.24555379  0.15640947     0.35400
C250        C  0.26938691  0.28014274  0.16966270    -0.26600
C251        C  0.23924861  0.31194232  0.15138390    -0.15900
C252        C  0.23831253  0.30428920  0.11950426     0.36500
N253        N  0.20747498  0.33482845  0.09984183    -0.90100
H254        H  0.27227424  0.26570199  0.08169378     0.17600
H255        H  0.27073004  0.28632716  0.19412848     0.17600
N256        N  0.33833283  0.21764225  0.17511958    -0.89200
H257        H  0.21812420  0.37229082  0.10240931     0.34900
H258        H  0.16998163  0.33146048  0.10690923     0.40000
H259        H  0.33102911  0.17950155  0.17182774     0.39700
H260        H  0.33183045  0.22490245  0.19824036     0.34500
C261        C  0.94275547  0.52577910  0.44264205    -0.27200
C262        C  0.92521867  0.47594794  0.43823239    -0.15300
C263        C  0.96109393  0.43923895  0.42963797     0.35400
C264        C  0.01261727  0.45193148  0.42823650    -0.26600
C265        C  0.03026842  0.50058648  0.43561964    -0.15900
C266        C  0.99418201  0.53816687  0.44181585     0.36500
N267        N  0.00851547  0.58850647  0.44916768    -0.90100
H268        H  0.91649797  0.55565753  0.44833394     0.17600
H269        H  0.03955618  0.42249458  0.42277861     0.17600
N270        N  0.94692727  0.38860550  0.42307437    -0.89200
H271        H  0.02877956  0.60319997  0.43081707     0.34900
H272        H  0.03190329  0.58757580  0.46848402     0.40000
H273        H  0.92041386  0.38920020  0.40529060     0.39700
H274        H  0.93028850  0.37317481  0.44251103     0.34500
C275        C  0.66338058  0.34428536  0.03608086    -0.27200
C276        C  0.64673317  0.36917432  0.00951515    -0.15300
C277        C  0.59400336  0.37333815  0.00409045     0.35400
C278        C  0.55991747  0.35117077  0.02431277    -0.26600
C279        C  0.57675386  0.32183056  0.04891110    -0.15900
C280        C  0.62923326  0.32001984  0.05548816     0.36500
N281        N  0.64906498  0.29447478  0.08180709    -0.90100
H282        H  0.70338047  0.34187786  0.04125100     0.17600
H283        H  0.51986697  0.35435980  0.01945901     0.17600
N284        N  0.57607165  0.39431573  0.47608744    -0.89200
H285        H  0.64298495  0.25596321  0.07954929     0.34900
H286        H  0.63013722  0.30764327  0.10115054     0.40000
H287        H  0.55130151  0.42231760  0.48360160     0.39700
H288        H  0.55425149  0.37266934  0.96461292     0.34500
C289        C  0.43524314  0.02059346  0.33399146    -0.27200
C290        C  0.48556708  0.03850100  0.33542847    -0.15300
C291        C  0.52459758  0.00285623  0.33980198     0.35400
C292        C  0.51317018  0.95131820  0.33970702    -0.26600
C293        C  0.46341094  0.93355430  0.33507476    -0.15900
C294        C  0.42381994  0.96892767  0.33362327     0.36500
N295        N  0.37252130  0.95263248  0.32991408    -0.90100
H296        H  0.40423117  0.04709776  0.33178980     0.17600
H297        H  0.54417736  0.92474391  0.34181145     0.17600
N298        N  0.57625627  0.01739040  0.34325364    -0.89200
H299        H  0.34808134  0.98346577  0.32782988     0.34900
H300        H  0.36230183  0.93397856  0.34997266     0.40000
H301        H  0.57900316  0.04132366  0.36208349     0.39700
H302        H  0.58731288  0.03678644  0.32363483     0.34500
C303        C  0.32284349  0.30150807  0.29627134    -0.27200
C304        C  0.37178058  0.32102569  0.30022133    -0.15300
C305        C  0.38283379  0.36851922  0.28753302     0.35400
C306        C  0.34721538  0.39213879  0.26835744    -0.26600
C307        C  0.29988184  0.37064062  0.26266047    -0.15900
C308        C  0.28683420  0.32592455  0.27798495     0.36500
N309        N  0.23845298  0.30294066  0.27419336    -0.90100
H310        H  0.31288136  0.26579972  0.30642991     0.17600
H311        H  0.35671578  0.42731401  0.25738414     0.17600
N312        N  0.43026980  0.39232734  0.29361287    -0.89200
H313        H  0.23241971  0.29612961  0.25096098     0.34900
H314        H  0.21071577  0.32780245  0.28206873     0.40000
H315        H  0.43169228  0.40022342  0.31699010     0.39700
H316        H  0.43222522  0.42692817  0.28234818     0.34500
C317        C  0.68345311  0.26911230  0.35545433    -0.27200
C318        C  0.64830930  0.24385981  0.37389330    -0.15300
C319        C  0.65156479  0.24922630  0.40577917     0.35400
C320        C  0.68761575  0.28160186  0.41862648    -0.26600
C321        C  0.71853889  0.31141586  0.40000267    -0.15900
C322        C  0.71734340  0.30400461  0.36819963     0.36500
N323        N  0.74799849  0.33429074  0.34869820    -0.90100
H324        H  0.68054249  0.26640002  0.33079920     0.17600
H325        H  0.68708769  0.28791490  0.44309170     0.17600
N326        N  0.61539864  0.22517136  0.42498427    -0.89200
H327        H  0.72410588  0.35405066  0.33379489     0.34900
H328        H  0.77057450  0.31027876  0.33562597     0.40000
H329        H  0.59578725  0.25323107  0.43662186     0.39700
H330        H  0.63505226  0.20342770  0.44110390     0.34500
C331        C  0.47061560  0.23894763  0.18506415    -0.27200
C332        C  0.49893767  0.20513555  0.16714731    -0.15300
C333        C  0.51647820  0.16002304  0.18047724     0.35400
C334        C  0.50492857  0.14931442  0.21093890    -0.26600
C335        C  0.47657342  0.18300126  0.22871868    -0.15900
C336        C  0.45964486  0.22844845  0.21566597     0.36500
N337        N  0.43349517  0.26509611  0.23373319    -0.90100
H338        H  0.45632916  0.27369560  0.17529979     0.17600
H339        H  0.51943433  0.11485404  0.22098924     0.17600
N340        N  0.54654219  0.12514996  0.16340333    -0.89200
H341        H  0.39870945  0.27289452  0.22333531     0.34900
H342        H  0.45462147  0.29813453  0.23372857     0.40000
H343        H  0.52796974  0.09062029  0.16314287     0.39700
H344        H  0.58101354  0.12028076  0.17481147     0.34500
C345        C  0.47943409  0.23418938  0.43514247    -0.27200
C346        C  0.45535050  0.19882962  0.41629063    -0.15300
C347        C  0.44158599  0.15183852  0.42911606     0.35400
C348        C  0.45156395  0.14211628  0.45998285    -0.26600
C349        C  0.47555119  0.17772513  0.47853042    -0.15900
C350        C  0.48904320  0.22421794  0.46595968     0.36500
N351        N  0.50918688  0.26290595  0.48494812    -0.90100
H352        H  0.49077913  0.27030778  0.42612167     0.17600
H353        H  0.43956310  0.10670718  0.46973019     0.17600
N354        N  0.41697335  0.11340506  0.41182312    -0.89200
H355        H  0.48486764  0.29394599  0.48344080     0.34900
H356        H  0.54421658  0.27334479  0.47633056     0.40000
H357        H  0.44118222  0.10098173  0.39459441     0.39700
H358        H  0.38390998  0.12828963  0.40218098     0.34500
C359        C  0.94507957  0.44403510  0.18930875    -0.27200
C360        C  0.92498519  0.49346202  0.18827590    -0.15300
C361        C  0.95837737  0.53340308  0.18334009     0.35400
C362        C  0.01058834  0.52368448  0.18121524    -0.26600
C363        C  0.03085707  0.47462775  0.18458892    -0.15900
C364        C  0.99726738  0.43445465  0.18787611     0.36500
N365        N  0.01586863  0.38416444  0.19151853    -0.90100
H366        H  0.92033158  0.41225830  0.19261741     0.17600
H367        H  0.03566586  0.55534499  0.17839667     0.17600
N368        N  0.93997302  0.58402579  0.18178828    -0.89200
H369        H  0.00342431  0.37056075  0.21259159     0.34900
H370        H  0.99989581  0.36206447  0.17434161     0.40000
H371        H  0.95749871  0.60458887  0.19913112     0.39700
H372        H  0.95088325  0.59923907  0.16081443     0.34500
C373        C  0.62945012  0.29411994  0.24275741    -0.27200
C374        C  0.59469360  0.31199383  0.26439571    -0.15300
C375        C  0.58349736  0.36400028  0.26500090     0.35400
C376        C  0.60819659  0.39686172  0.24520725    -0.26600
C377        C  0.64514529  0.37962495  0.22495661    -0.15900
C378        C  0.65499537  0.32742092  0.22325023     0.36500
N379        N  0.69116002  0.30799207  0.20202110    -0.90100
H380        H  0.63813545  0.25434197  0.24159335     0.17600
H381        H  0.59981672  0.43667449  0.24683265     0.17600
N382        N  0.54703338  0.38417242  0.28571699    -0.89200
H383        H  0.67281766  0.28227802  0.18784267     0.34900
H384        H  0.71899945  0.28857667  0.21437039     0.40000
H385        H  0.52031414  0.40389021  0.27271847     0.39700
H386        H  0.56526409  0.41003309  0.29985076     0.34500
C387        C  0.81869089  0.50273160  0.31370799    -0.27200
C388        C  0.78240023  0.47910687  0.29531439    -0.15300
C389        C  0.73585302  0.46501937  0.30813165     0.35400
C390        C  0.72636300  0.47573143  0.33891504    -0.26600
C391        C  0.76210086  0.50071165  0.35722817    -0.15900
C392        C  0.80915917  0.51338843  0.34447118     0.36500
N393        N  0.84729407  0.53746131  0.36242867    -0.90100
H394        H  0.85433134  0.51421531  0.30389809     0.17600
H395        H  0.69053005  0.46452485  0.34853945     0.17600
N396        N  0.69750853  0.44194606  0.28962854    -0.89200
H397        H  0.85621309  0.57156613  0.35194331     0.34900
H398        H  0.87961933  0.51468288  0.36232123     0.40000
H399        H  0.68507589  0.46874431  0.27374578     0.39700
H400        H  0.66608874  0.43265798  0.30282067     0.34500
C401        C  0.72690195  0.48884624  0.08896875    -0.27200
C402        C  0.76337596  0.46480620  0.10746716    -0.15300
C403        C  0.81100630  0.45310407  0.09487959     0.35400
C404        C  0.82065160  0.46471586  0.06423117    -0.26600
C405        C  0.78365725  0.48769557  0.04571688    -0.15900
C406        C  0.73635485  0.50011672  0.05844793     0.36500
N407        N  0.69612206  0.52157975  0.04062765    -0.90100
H408        H  0.69033624  0.49907826  0.09816469     0.17600
H409        H  0.85673078  0.45398131  0.05451237     0.17600
N410        N  0.84943099  0.42874972  0.11280057    -0.89200
H411        H  0.68793376  0.49737523  0.02253839     0.34900
H412        H  0.70797937  0.55610587  0.03189838     0.40000
H413        H  0.88131356  0.45170633  0.11303596     0.39700
H414        H  0.85914823  0.39501925  0.10205705     0.34500
C415        C  0.60182316  0.58151883  0.26288446    -0.27200
C416        C  0.65034958  0.60142968  0.25909647    -0.15300
C417        C  0.66331061  0.64583871  0.27446391     0.35400
C418        C  0.62698148  0.67082638  0.29214512    -0.26600
C419        C  0.57740558  0.65243265  0.29478564    -0.15900
C420        C  0.56543041  0.60632789  0.28063468     0.36500
N421        N  0.51621890  0.58490865  0.28354011    -0.90100
H422        H  0.59173067  0.54682544  0.25152570     0.17600
H423        H  0.63732483  0.70594893  0.30286566     0.17600
N424        N  0.71245996  0.66716092  0.27089944    -0.89200
H425        H  0.52028595  0.54919460  0.29325370     0.34900
H426        H  0.50115827  0.58053452  0.26159258     0.40000
H427        H  0.72879543  0.67057954  0.29257291     0.39700
H428        H  0.70812118  0.70320187  0.26167852     0.34500
C429        C  0.44011744  0.95050645  0.08493616    -0.27200
C430        C  0.49012270  0.93120868  0.08436544    -0.15300
C431        C  0.53017194  0.96553201  0.08724776     0.35400
C432        C  0.51948217  0.01768184  0.08798045    -0.26600
C433        C  0.46953041  0.03694490  0.08604495    -0.15900
C434        C  0.42963026  0.00246228  0.08562367     0.36500
N435        N  0.37836347  0.01979110  0.08441757    -0.90100
H436        H  0.40839094  0.92511087  0.08355836     0.17600
H437        H  0.55080785  0.04359835  0.08901326     0.17600
N438        N  0.58153353  0.94780717  0.08806379    -0.89200
H439        H  0.35933163  0.00478663  0.10317937     0.34900
H440        H  0.36169426  0.00561652  0.06455686     0.40000
H441        H  0.58637434  0.92753978  0.10836411     0.39700
H442        H  0.60655274  0.97796527  0.08917443     0.34500
C443        C  0.39770996  0.61632241  0.02170829    -0.27200
C444        C  0.37991678  0.64824091  0.04470218    -0.15300
C445        C  0.32733482  0.65250275  0.04926079     0.35400
C446        C  0.29371693  0.62700545  0.02979802    -0.26600
C447        C  0.31153532  0.59821895  0.00514255    -0.15900
C448        C  0.35937312  0.58347636  0.50986621     0.36500
N449        N  0.37819106  0.54285272  0.49167520    -0.90100
H450        H  0.43242492  0.59913747  0.52867059     0.17600
H451        H  0.25346809  0.63125150  0.03343496     0.17600
N452        N  0.30784467  0.68278849  0.07355210    -0.89200
H453        H  0.39404534  0.51601141  0.50638102     0.34900
H454        H  0.40693393  0.55664293  0.47772787     0.40000
H455        H  0.28597638  0.65987236  0.08762845     0.39700
H456        H  0.28414564  0.71022942  0.06399583     0.34500
C457        C  0.57593394  0.61085629  0.00747327    -0.27200
C458        C  0.59616595  0.65927964  0.00984320    -0.15300
C459        C  0.63778155  0.67216261  0.99171031     0.35400
C460        C  0.65976948  0.63250477  0.47623981    -0.26600
C461        C  0.64234473  0.58252681  0.47575057    -0.15900
C462        C  0.59914707  0.57054898  0.49330343     0.36500
N463        N  0.57667872  0.52181630  0.49295232    -0.90100
H464        H  0.54274249  0.60100518  0.02055664     0.17600
H465        H  0.69229820  0.64317608  0.46283441     0.17600
N466        N  0.65816007  0.72181862  0.99274686    -0.89200
H467        H  0.60270406  0.49543718  0.50120414     0.34900
H468        H  0.56686521  0.51307001  0.47043730     0.40000
H469        H  0.65754069  0.73647001  0.97056934     0.39700
H470        H  0.69583056  0.71917134  0.99986389     0.34500
C471        C  0.68851453  0.68731918  0.16804880    -0.27200
C472        C  0.71827234  0.65457292  0.15039293    -0.15300
C473        C  0.71894308  0.66096339  0.11849654     0.35400
C474        C  0.68668831  0.69674927  0.10458983    -0.26600
C475        C  0.65182840  0.72460563  0.12201840    -0.15900
C476        C  0.65459164  0.72127969  0.15422603     0.36500
N477        N  0.62141421  0.74989398  0.17336537    -0.90100
H478        H  0.68733088  0.68253616  0.19264630     0.17600
H479        H  0.68475504  0.69836128  0.07985813     0.17600
N480        N  0.75006196  0.62904828  0.10008669    -0.89200
H481        H  0.58410789  0.73978333  0.16876635     0.34900
H482        H  0.62569217  0.78788743  0.16795745     0.40000
H483        H  0.77407950  0.65190166  0.08731566     0.39700
H484        H  0.72670910  0.60981473  0.08484173     0.34500
C485        C  0.49435194  0.82499517  0.45679367    -0.27200
C486        C  0.47664091  0.78671864  0.47588362    -0.15300
C487        C  0.46885570  0.73847567  0.46376850     0.35400
C488        C  0.47841566  0.72941767  0.43277576    -0.26600
C489        C  0.49584892  0.76779667  0.41336464    -0.15900
C490        C  0.50341257  0.81627848  0.42570450     0.36500
N491        N  0.51976158  0.85706852  0.40685946    -0.90100
H492        H  0.50155283  0.86194234  0.46614785     0.17600
H493        H  0.47174521  0.69206090  0.42392239     0.17600
N494        N  0.45333495  0.69803006  0.48315760    -0.89200
H495        H  0.55337664  0.87106205  0.41598834     0.34900
H496        H  0.49243046  0.88555589  0.40781404     0.40000
H497        H  0.48095468  0.66981412  0.48231000     0.39700
H498        H  0.41975156  0.68339270  0.47436577     0.34500
C499        C  0.45160888  0.81628034  0.17412813    -0.27200
C500        C  0.45596127  0.76622691  0.16407772    -0.15300
C501        C  0.46963273  0.72862288  0.18556185     0.35400
C502        C  0.47991990  0.74184983  0.21591284    -0.26600
C503        C  0.47560548  0.79171416  0.22569189    -0.15900
C504        C  0.46082352  0.82910427  0.20472436     0.36500
N505        N  0.45582556  0.88025372  0.21437474    -0.90100
H506        H  0.44194566  0.84594702  0.15811525     0.17600
H507        H  0.48921886  0.71251086  0.23226718     0.17600
N508        N  0.47271863  0.67682481  0.17692160    -0.89200
H509        H  0.41888146  0.89210860  0.20968334     0.34900
H510        H  0.48029483  0.90205823  0.20124800     0.40000
H511        H  0.44768344  0.65655132  0.19056427     0.39700
H512        H  0.50932961  0.66392551  0.18161096     0.34500
O513        O  0.51453182  0.81963961  0.02153604    -0.82700
C514        C  0.45023238  0.75851662  0.63093503     0.96700
O515        O  0.43825932  0.79307199  0.61214040    -0.71800
O516        O  0.45729980  0.85348838  0.56608119    -0.75400
Al517      Al  0.43899002  0.78515075  0.56898085     1.49000
C518        C  0.49505043  0.87644532  0.57629114     0.91900
O519        O  0.60221204  0.77204365  0.58519925    -0.81600
O520        O  0.55593737  0.67480769  0.56003560    -0.75200
Al521      Al  0.55209403  0.79287372  0.55534869     1.90100
O522        O  0.56074066  0.72179731  0.61570404    -0.74200
O523        O  0.45941312  0.66858326  0.56404599    -0.74100
O524        O  0.46309812  0.71531582  0.62139450    -0.79700
O525        O  0.40130466  0.72465103  0.57145103    -0.77900
O526        O  0.50091381  0.75912375  0.57131799    -1.14100
O527        O  0.44272935  0.77857256  0.02539856    -0.73300
C528        C  0.47777525  0.79702885  0.00913940     0.97400
C529        C  0.60103051  0.74321086  0.60819879     0.93800
Al530      Al  0.50910368  0.69985057  0.58900559     1.55600
O531        O  0.53694301  0.85306827  0.57922169    -0.77900
C532        C  0.41393264  0.68193505  0.56209901     0.98000
C533        C  0.57374571  0.69197941  0.53548364     0.92900
O534        O  0.57160511  0.73842433  0.52953565    -0.83200
O535        O  0.80988260  0.51733577  0.74952621    -0.82700
C536        C  0.74706856  0.45793893  0.63996702     0.96700
O537        O  0.78206382  0.44557258  0.65844406    -0.71800
O538        O  0.84391053  0.46241084  0.70416178    -0.75400
Al539      Al  0.77528059  0.44517845  0.70138586     1.49000
C540        C  0.86763726  0.49946830  0.69401822     0.91900
O541        O  0.76405661  0.60823449  0.68690328    -0.81600
O542        O  0.66652883  0.56194507  0.71283891    -0.75200
Al543      Al  0.78521692  0.55731526  0.71598686     1.90100
O544        O  0.71099108  0.56864533  0.65698352    -0.74200
O545        O  0.65900825  0.46613914  0.70772173    -0.74100
O546        O  0.70403129  0.47185041  0.64970633    -0.79700
O547        O  0.71424281  0.40798861  0.69859846    -0.77900
O548        O  0.74989579  0.50719267  0.69993574    -1.14100
O549        O  0.76874347  0.44563225  0.74480150    -0.73300
C550        C  0.78797511  0.47982739  0.76138593     0.97400
C551        C  0.73358415  0.60815982  0.66455831     0.93800
Al552      Al  0.68983650  0.51631047  0.68305459     1.55600
O553        O  0.84489140  0.54160620  0.69132596    -0.77900
C554        C  0.67213739  0.42074352  0.70899095     0.98000
C555        C  0.68487374  0.58044659  0.73690941     0.92900
O556        O  0.73168619  0.57763214  0.74252244    -0.83200
O557        O  0.57141269  0.23157888  0.78168045    -0.82700
C558        C  0.45258616  0.21079066  0.88405559     0.96700
O559        O  0.46555398  0.25415303  0.87489475    -0.71800
O560        O  0.56303456  0.24719698  0.86803398    -0.75400
Al561      Al  0.51034035  0.26996582  0.84206049     1.49000
C562        C  0.60336945  0.22609644  0.85983033     0.91900
O563        O  0.53787902  0.11633524  0.83220564    -0.81600
O564        O  0.44144354  0.19474326  0.77838697    -0.75200
Al565      Al  0.55286705  0.17686425  0.80786748     1.90100
O566        O  0.45849479  0.11799576  0.81858386    -0.74200
O567        O  0.40171637  0.24696073  0.82493006    -0.74100
O568        O  0.43973888  0.17736935  0.86496933    -0.79700
O569        O  0.45952266  0.30266948  0.81790597    -0.77900
O570        O  0.50190307  0.21123192  0.82417890    -1.14100
O571        O  0.55612545  0.29452821  0.81267487    -0.73300
C572        C  0.57313970  0.27804117  0.78774837     0.97400
C573        C  0.49557845  0.09397878  0.82925187     0.93800
Al574      Al  0.43999372  0.18619514  0.82189330     1.55600
O575        O  0.60395512  0.19728558  0.83691369    -0.77900
C576        C  0.41396027  0.29004228  0.81619056     0.98000
C577        C  0.47669968  0.17649922  0.76198774     0.92900
O578        O  0.51336433  0.15300759  0.77425661    -0.83200
O579        O  0.73231761  0.38820351  0.49218614    -0.82700
C580        C  0.75307389  0.50626153  0.89009387     0.96700
O581        O  0.70945268  0.49519048  0.89977900    -0.71800
O582        O  0.71769793  0.39850301  0.90711204    -0.75400
Al583      Al  0.69421601  0.45060023  0.93269226     1.49000
C584        C  0.73740104  0.35793836  0.91609439     0.91900
O585        O  0.84846477  0.42018192  0.94456033    -0.81600
O586        O  0.76945399  0.51837689  0.49514546    -0.75200
Al587      Al  0.78657674  0.40810027  0.96838273     1.90100
O588        O  0.84748044  0.50021214  0.95523238    -0.74200
O589        O  0.71849756  0.55809679  0.94872796    -0.74100
O590        O  0.78771342  0.51830008  0.90873395    -0.79700
O591        O  0.66215471  0.50116760  0.95667057    -0.77900
O592        O  0.75338203  0.45879367  0.95082838    -1.14100
O593        O  0.66884444  0.40487417  0.96187636    -0.73300
C594        C  0.68571966  0.38557820  0.48564905     0.97400
C595        C  0.87163406  0.46198321  0.94682131     0.93800
Al596      Al  0.77960427  0.51990612  0.95184906     1.55600
O597        O  0.76488416  0.35681312  0.93983783    -0.77900
C598        C  0.67557418  0.54624908  0.95838375     0.98000
C599        C  0.78761644  0.48325920  0.51170600     0.92900
O600        O  0.81106775  0.44657824  0.49975180    -0.83200
O601        O  0.44383626  0.14878727  0.02513096    -0.82700
C602        C  0.49861185  0.21502296  0.63281237     0.96700
O603        O  0.51145500  0.17962413  0.61495099    -0.71800
O604        O  0.49470267  0.11617350  0.57001857    -0.75400
Al605      Al  0.51207035  0.18422034  0.57182343     1.49000
C606        C  0.45741847  0.09169343  0.57911681     0.91900
O607        O  0.34931648  0.19416414  0.58685259    -0.81600
O608        O  0.39945716  0.29393521  0.55508614    -0.75200
Al609      Al  0.39898308  0.17375777  0.55727779     1.90100
O610        O  0.38674276  0.25473571  0.61207259    -0.74200
O611        O  0.49448377  0.29968712  0.56334229    -0.74100
O612        O  0.48341585  0.25722281  0.62237386    -0.79700
O613        O  0.55132319  0.24405510  0.57369382    -0.77900
O614        O  0.44990556  0.20996614  0.57239811    -1.14100
O615        O  0.51525632  0.19064072  0.02920575    -0.73300
C616        C  0.48050969  0.17143954  0.01286184     0.97400
C617        C  0.34890247  0.22761112  0.60727609     0.93800
Al618      Al  0.44181396  0.27133742  0.58715682     1.55600
O619        O  0.41518118  0.11418043  0.58205531    -0.77900
C620        C  0.53985780  0.28606865  0.56289393     0.98000
C621        C  0.37817587  0.27320789  0.53267375     0.92900
O622        O  0.37683931  0.22597131  0.53023547    -0.83200
O623        O  0.13943161  0.45193548  0.74795331    -0.82700
C624        C  0.20692677  0.50253617  0.63778328     0.96700
O625        O  0.17112510  0.51668063  0.65511021    -0.71800
O626        O  0.10682564  0.50244745  0.69982328    -0.75400
Al627      Al  0.17519870  0.52087116  0.69833469     1.49000
C628        C  0.08363988  0.46380680  0.69154676     0.91900
O629        O  0.18871273  0.35749236  0.68910577    -0.81600
O630        O  0.28580363  0.40941193  0.71767262    -0.75200
Al631      Al  0.16625411  0.40980531  0.71649832     1.90100
O632        O  0.24575290  0.39468353  0.66093569    -0.74200
O633        O  0.29150257  0.50394225  0.70802117    -0.74100
O634        O  0.24955928  0.48990282  0.64899427    -0.79700
O635        O  0.23544198  0.55973538  0.69616684    -0.77900
O636        O  0.20170940  0.45936428  0.69965097    -1.14100
O637        O  0.17939335  0.52390260  0.74198298    -0.73300
C638        C  0.16108807  0.49002941  0.75920240     0.97400
C639        C  0.22046077  0.35650754  0.66763066     0.93800
Al640      Al  0.26319174  0.45031578  0.68498680     1.55600
O641        O  0.10719842  0.42202688  0.69047805    -0.77900
C642        C  0.27752664  0.54902294  0.70769978     0.98000
C643        C  0.26607386  0.39231020  0.74168855     0.92900
O644        O  0.21871220  0.39272962  0.74497222    -0.83200
O645        O  0.22572805  0.57778938  0.48995302    -0.82700
C646        C  0.20599389  0.45748037  0.88643517     0.96700
O647        O  0.25007268  0.46839599  0.89579055    -0.71800
O648        O  0.24312993  0.56551839  0.90291529    -0.75400
Al649      Al  0.26601268  0.51283689  0.92886790     1.49000
C650        C  0.22114789  0.60522232  0.91126480     0.91900
O651        O  0.11149399  0.54077052  0.93984283    -0.81600
O652        O  0.18449121  0.44710503  0.49142059    -0.75200
Al653      Al  0.17287306  0.55471659  0.96348599     1.90100
O654        O  0.11261894  0.46101581  0.95158741    -0.74200
O655        O  0.24225079  0.40511965  0.94494263    -0.74100
O656        O  0.17232319  0.44411369  0.90525339    -0.79700
O657        O  0.29798908  0.46228826  0.95348078    -0.77900
O658        O  0.20678046  0.50430580  0.94667963    -1.14100
O659        O  0.29131538  0.55849661  0.95823714    -0.73300
C660        C  0.27290638  0.57614444  0.48567536     0.97400
C661        C  0.08843553  0.49912199  0.94283702     0.93800
Al662      Al  0.18112963  0.44273624  0.94822619     1.55600
O663        O  0.19273835  0.60536937  0.93440699    -0.77900
C664        C  0.28442352  0.41727916  0.95562738     0.98000
C665        C  0.16700198  0.48173984  0.50853313     0.92900
O666        O  0.14672291  0.52085232  0.49714278    -0.83200
O667        O  0.37735426  0.74624164  0.77657907    -0.82700
C668        C  0.49916715  0.75998364  0.87967936     0.96700
O669        O  0.48538878  0.71742484  0.86952813    -0.71800
O670        O  0.38852003  0.72211122  0.86170395    -0.75400
Al671      Al  0.44124944  0.70350217  0.83550195     1.49000
C672        C  0.34777318  0.74380109  0.85485244     0.91900
O673        O  0.41044274  0.85791159  0.83008417    -0.81600
O674        O  0.50801249  0.78601414  0.77493716    -0.75200
Al675      Al  0.39607697  0.79891478  0.80426268     1.90100
O676        O  0.48995861  0.85820341  0.81713467    -0.74200
O677        O  0.54917144  0.73030964  0.81920101    -0.74100
O678        O  0.51056775  0.79513490  0.86141778    -0.79700
O679        O  0.49219237  0.67454622  0.81054327    -0.77900
O680        O  0.44809214  0.76407183  0.81961200    -1.14100
O681        O  0.39629731  0.68051590  0.80496925    -0.73300
C682        C  0.37721424  0.69925434  0.78102850     0.97400
C683        C  0.45251162  0.88089745  0.82804130     0.93800
Al684      Al  0.50961111  0.79039787  0.81829641     1.55600
O685        O  0.34583535  0.77514428  0.83307260    -0.77900
C686        C  0.53724859  0.68828280  0.80867998     0.98000
C687        C  0.47261586  0.80482209  0.75875648     0.92900
O688        O  0.43483342  0.82604686  0.77109968    -0.83200
C689        C  0.26605800  0.69899508  0.85247337    -0.27200
C690        C  0.30164510  0.72533765  0.87020127    -0.15300
C691        C  0.30164039  0.71856303  0.90209376     0.35400
C692        C  0.26876308  0.68375215  0.91551901    -0.26600
C693        C  0.23764286  0.65317326  0.89746613    -0.15900
C694        C  0.23502323  0.66206844  0.86581362     0.36500
N695        N  0.20309409  0.63172017  0.84703359    -0.90100
H696        H  0.26648857  0.70273723  0.82780728     0.17600
H697        H  0.27192551  0.67655553  0.93985037     0.17600
N698        N  0.33821215  0.74380496  0.92061184    -0.89200
H699        H  0.22573258  0.61367104  0.83088147     0.34900
H700        H  0.17814072  0.65556721  0.83532654     0.40000
H701        H  0.36039713  0.71650418  0.93154350     0.39700
H702        H  0.31894043  0.76406584  0.93739039     0.34500
C703        C  0.29038236  0.63919352  0.72201410    -0.27200
C704        C  0.30826548  0.58913587  0.72231125    -0.15300
C705        C  0.35225784  0.57774374  0.73934760     0.35400
C706        C  0.37497154  0.61502655  0.75713525    -0.26600
C707        C  0.35527630  0.66409838  0.75838030    -0.15900
C708        C  0.31352998  0.67663024  0.73980490     0.36500
N709        N  0.29286724  0.72645890  0.74010713    -0.90100
H710        H  0.25695970  0.64907900  0.70890157     0.17600
H711        H  0.40756289  0.60490578  0.77089830     0.17600
N712        N  0.37325210  0.52801631  0.73965339    -0.89200
H713        H  0.25523210  0.72431011  0.74710003     0.34900
H714        H  0.29329387  0.74030689  0.71774351     0.40000
H715        H  0.37385110  0.51515979  0.76223862     0.39700
H716        H  0.41058277  0.53004709  0.73207877     0.34500
C717        C  0.13367728  0.46670041  0.81125009    -0.27200
C718        C  0.16932761  0.49020606  0.79246581    -0.15300
C719        C  0.21703187  0.50215000  0.80455981     0.35400
C720        C  0.22850678  0.48986093  0.83493523    -0.26600
C721        C  0.19331778  0.46522628  0.85369979    -0.15900
C722        C  0.14508132  0.45423596  0.84164023     0.36500
N723        N  0.10767418  0.42985752  0.85987896    -0.90100
H724        H  0.09723285  0.45627358  0.80192933     0.17600
H725        H  0.26545741  0.49963345  0.84373412     0.17600
N726        N  0.25510582  0.52375869  0.78553519    -0.89200
H727        H  0.09745326  0.39649566  0.84899076     0.34900
H728        H  0.07577868  0.45316808  0.86077831     0.40000
H729        H  0.28595993  0.49909436  0.78504511     0.39700
H730        H  0.26700506  0.55735144  0.79547262     0.34500
C731        C  0.14904768  0.50720060  0.59284377    -0.27200
C732        C  0.19778567  0.49742365  0.60433966    -0.15300
C733        C  0.23468082  0.47751500  0.58424507     0.35400
C734        C  0.22242391  0.46905907  0.55343796    -0.26600
C735        C  0.17419136  0.48044668  0.54196829    -0.15900
C736        C  0.13702514  0.49928540  0.56212186     0.36500
N737        N  0.08634966  0.50976265  0.55225214    -0.90100
H738        H  0.11963298  0.52101178  0.60783853     0.17600
H739        H  0.25156518  0.45559637  0.53809995     0.17600
N740        N  0.28470912  0.46583228  0.59478281    -0.89200
H741        H  0.07210717  0.47781222  0.54144587     0.34900
H742        H  0.08645519  0.53957290  0.53674390     0.40000
H743        H  0.31026253  0.48664065  0.58183445     0.39700
H744        H  0.29167501  0.42771460  0.59072324     0.34500
C745        C  0.28276471  0.33266831  0.47877529    -0.27200
C746        C  0.31507838  0.37890097  0.97231372    -0.15300
C747        C  0.35815171  0.39175410  0.98975842     0.35400
C748        C  0.37945444  0.35611954  0.00979417    -0.26600
C749        C  0.35493235  0.30577234  0.50912379    -0.15900
C750        C  0.30588393  0.29717304  0.49811403     0.36500
N751        N  0.27829404  0.25404948  0.50801411    -0.90100
H752        H  0.24398877  0.32652068  0.47179287     0.17600
H753        H  0.41178918  0.36642617  0.02364494     0.17600
N754        N  0.37929226  0.44118938  0.98791530    -0.89200
H755        H  0.26751314  0.23379467  0.48865114     0.34900
H756        H  0.24550794  0.26654342  0.51894876     0.40000
H757        H  0.39410986  0.44537285  0.96596432     0.39700
H758        H  0.40967780  0.44483573  0.00307695     0.34500
C759        C  0.26608369  0.26960061  0.60621967    -0.27200
C760        C  0.30188744  0.24183128  0.62313331    -0.15300
C761        C  0.30036368  0.24334750  0.65525641     0.35400
C762        C  0.26603894  0.27604854  0.66981355    -0.26600
C763        C  0.23523537  0.30898052  0.65272090    -0.15900
C764        C  0.23382684  0.30409996  0.62063202     0.36500
N765        N  0.20253502  0.33611659  0.60210171    -0.90100
H766        H  0.26760293  0.26929728  0.58146725     0.17600
H767        H  0.26789348  0.28031700  0.69442296     0.17600
N768        N  0.33679802  0.21509738  0.67275074    -0.89200
H769        H  0.21297751  0.37340879  0.60571951     0.34900
H770        H  0.16516862  0.33194415  0.60922597     0.40000
H771        H  0.33034774  0.17705089  0.66860336     0.39700
H772        H  0.33114594  0.22069350  0.69614207     0.34500
C773        C  0.94577798  0.51966943  0.94442455    -0.27200
C774        C  0.92716624  0.47000000  0.94137236    -0.15300
C775        C  0.96251192  0.43148018  0.93519544     0.35400
C776        C  0.01429859  0.44301255  0.93343728    -0.26600
C777        C  0.03278156  0.49225124  0.93837625    -0.15900
C778        C  0.99737829  0.53089868  0.94349277     0.36500
N779        N  0.01250518  0.58147330  0.94953356    -0.90100
H780        H  0.92014985  0.55064513  0.94887965     0.17600
H781        H  0.04065980  0.41245943  0.92937293     0.17600
N782        N  0.94751533  0.38028998  0.93148610    -0.89200
H783        H  0.03275622  0.59472045  0.93076209     0.34900
H784        H  0.03592202  0.58155355  0.96882837     0.40000
H785        H  0.92168325  0.37844871  0.91339514     0.39700
H786        H  0.92981811  0.36845491  0.95151694     0.34500
C787        C  0.66539326  0.33692110  0.53333989    -0.27200
C788        C  0.64866312  0.36335895  0.50731579    -0.15300
C789        C  0.59589967  0.36849117  0.50232610     0.35400
C790        C  0.56185992  0.34701830  0.52276351    -0.26600
C791        C  0.57837984  0.31679170  0.54701528    -0.15900
C792        C  0.63104155  0.31289239  0.55284534     0.36500
N793        N  0.65083674  0.28564214  0.57853075    -0.90100
H794        H  0.70546758  0.33342728  0.53806535     0.17600
H795        H  0.52181749  0.35161130  0.51831836     0.17600
N796        N  0.57440829  0.39869634  0.97762870    -0.89200
H797        H  0.64277186  0.24755770  0.57590131     0.34900
H798        H  0.63334144  0.29897987  0.59831682     0.40000
H799        H  0.54884296  0.42618815  0.98489561     0.39700
H800        H  0.55507781  0.36872024  0.46322569     0.34500
C801        C  0.43536300  0.02280651  0.83707059    -0.27200
C802        C  0.48622316  0.03942211  0.83617471    -0.15300
C803        C  0.52466880  0.00275734  0.83846686     0.35400
C804        C  0.51184544  0.95160771  0.83882741    -0.26600
C805        C  0.46120347  0.93500669  0.83612262    -0.15900
C806        C  0.42251042  0.97135358  0.83680183     0.36500
N807        N  0.37054279  0.95632115  0.83541161    -0.90100
H808        H  0.40497249  0.05022931  0.83649859     0.17600
H809        H  0.54246261  0.92440225  0.83941645     0.17600
N810        N  0.57702601  0.01582925  0.83891112    -0.89200
H811        H  0.34670377  0.98778499  0.83505371     0.34900
H812        H  0.36265425  0.93693719  0.85560966     0.40000
H813        H  0.58349184  0.03938610  0.85757938     0.39700
H814        H  0.58538672  0.03523368  0.81879626     0.34500
C815        C  0.32342120  0.31046423  0.80472613    -0.27200
C816        C  0.37477055  0.32349016  0.80235745    -0.15300
C817        C  0.38773989  0.36474966  0.78387356     0.35400
C818        C  0.35084453  0.38807146  0.76567150    -0.26600
C819        C  0.30044762  0.37182572  0.76566923    -0.15900
C820        C  0.28618129  0.33451351  0.78696807     0.36500
N821        N  0.23488975  0.31877330  0.79031258    -0.90100
H822        H  0.31222815  0.27998172  0.81962104     0.17600
H823        H  0.36233307  0.41817270  0.75057571     0.17600
N824        N  0.43863479  0.38213744  0.78247103    -0.89200
H825        H  0.22186545  0.30539364  0.76929172     0.34900
H826        H  0.21309599  0.34982262  0.79679950     0.40000
H827        H  0.43869183  0.41993260  0.78892562     0.39700
H828        H  0.45064338  0.38005729  0.75978718     0.34500
C829        C  0.68315598  0.27290286  0.85593866    -0.27200
C830        C  0.65103482  0.24344220  0.87404794    -0.15300
C831        C  0.65709877  0.24434848  0.90597390     0.35400
C832        C  0.69247679  0.27702704  0.91937586    -0.26600
C833        C  0.71998070  0.31101636  0.90137710    -0.15900
C834        C  0.71648585  0.30753624  0.86936258     0.36500
N835        N  0.74391979  0.34179547  0.85051590    -0.90100
H836        H  0.67816394  0.27341234  0.83133853     0.17600
H837        H  0.69390843  0.27998264  0.94406391     0.17600
N838        N  0.62489460  0.21465243  0.92487779    -0.89200
H839        H  0.71784709  0.36228939  0.83744148     0.34900
H840        H  0.76633130  0.32078084  0.83558605     0.40000
H841        H  0.60492520  0.23892620  0.93925206     0.39700
H842        H  0.64774083  0.19155439  0.93852849     0.34500
C843        C  0.46813732  0.23940680  0.68442596    -0.27200
C844        C  0.49675423  0.20627306  0.66625225    -0.15300
C845        C  0.51755495  0.16271973  0.67984945     0.35400
C846        C  0.50814147  0.15242542  0.71069925    -0.26600
C847        C  0.47869471  0.18502644  0.72864866    -0.15900
C848        C  0.45933161  0.22938451  0.71538977     0.36500
N849        N  0.43260452  0.26546465  0.73351812    -0.90100
H850        H  0.45173992  0.27315273  0.67455567     0.17600
H851        H  0.52480599  0.11897628  0.72079913     0.17600
N852        N  0.54872435  0.12902215  0.66262726    -0.89200
H853        H  0.39696764  0.27133633  0.72373099     0.34900
H854        H  0.45227079  0.29932134  0.73254282     0.40000
H855        H  0.53224476  0.09345722  0.66317936     0.39700
H856        H  0.58397420  0.12657356  0.67341142     0.34500
C857        C  0.48019071  0.23544332  0.93600903    -0.27200
C858        C  0.45716663  0.19926644  0.91720233    -0.15300
C859        C  0.44459524  0.15212069  0.93020195     0.35400
C860        C  0.45514942  0.14280485  0.96108138    -0.26600
C861        C  0.47861331  0.17899197  0.97950753    -0.15900
C862        C  0.49061727  0.22583580  0.96678839     0.36500
N863        N  0.51064327  0.26501677  0.98545405    -0.90100
H864        H  0.49045936  0.27184488  0.92692446     0.17600
H865        H  0.44419742  0.10711851  0.97091040     0.17600
N866        N  0.42071682  0.11308854  0.91304585    -0.89200
H867        H  0.48546827  0.29539986  0.98440329     0.34900
H868        H  0.54495574  0.27634425  0.97605591     0.40000
H869        H  0.44500907  0.10128613  0.89570302     0.39700
H870        H  0.38725081  0.12724472  0.90351094     0.34500
C871        C  0.94163135  0.44107411  0.68804493    -0.27200
C872        C  0.92247651  0.49094964  0.68737967    -0.15300
C873        C  0.95684114  0.53029870  0.68339432     0.35400
C874        C  0.00892855  0.51968123  0.68216072    -0.26600
C875        C  0.02830075  0.47025623  0.68556645    -0.15900
C876        C  0.99382193  0.43055243  0.68749280     0.36500
N877        N  0.01138095  0.37978875  0.69047212    -0.90100
H878        H  0.91606920  0.40971584  0.69045092     0.17600
H879        H  0.03456997  0.55103986  0.68007176     0.17600
N880        N  0.93950041  0.58128873  0.68200590    -0.89200
H881        H  0.99745846  0.36524353  0.71095843     0.34900
H882        H  0.99602870  0.35894652  0.67251672     0.40000
H883        H  0.95652121  0.60104955  0.69987327     0.39700
H884        H  0.95178617  0.59681464  0.66140356     0.34500
C885        C  0.62398523  0.29709720  0.74098344    -0.27200
C886        C  0.59489767  0.31441914  0.76564230    -0.15300
C887        C  0.58746701  0.36690352  0.76905208     0.35400
C888        C  0.60908711  0.40029347  0.74828763    -0.26600
C889        C  0.64095127  0.38326748  0.72511359    -0.15900
C890        C  0.64771014  0.33100701  0.72106364     0.36500
N891        N  0.67901684  0.31216887  0.69700345    -0.90100
H892        H  0.62989271  0.25715843  0.73772175     0.17600
H893        H  0.60351300  0.44024550  0.75174666     0.17600
N894        N  0.55945390  0.38714346  0.79414603    -0.89200
H895        H  0.65711200  0.28869429  0.68324667     0.34900
H896        H  0.70784588  0.29043797  0.70685057     0.40000
H897        H  0.53173655  0.41120482  0.78531167     0.39700
H898        H  0.58398634  0.40900114  0.80726481     0.34500
C899        C  0.81995000  0.49926953  0.81330160    -0.27200
C900        C  0.78147629  0.47986061  0.79470941    -0.15300
C901        C  0.73381107  0.47054200  0.80738211     0.35400
C902        C  0.72519140  0.48088668  0.83821150    -0.26600
C903        C  0.76339509  0.50080412  0.85699663    -0.15900
C904        C  0.81153656  0.50943212  0.84431350     0.36500
N905        N  0.85195391  0.52869278  0.86261086    -0.90100
H906        H  0.85649842  0.50760230  0.80352290     0.17600
H907        H  0.68808195  0.47313037  0.84736021     0.17600
N908        N  0.69315805  0.45308471  0.78865437    -0.89200
H909        H  0.86421593  0.56222168  0.85272010     0.34900
H910        H  0.88185992  0.50287652  0.86199882     0.40000
H911        H  0.66387550  0.47957640  0.78963870     0.39700
H912        H  0.68009163  0.41946756  0.79799731     0.34500
C913        C  0.72203262  0.48672697  0.58818451    -0.27200
C914        C  0.75703215  0.46093241  0.60680816    -0.15300
C915        C  0.80299907  0.44444643  0.59400299     0.35400
C916        C  0.81341915  0.45494873  0.56332360    -0.26600
C917        C  0.77870397  0.48137674  0.54488925    -0.15900
C918        C  0.73214794  0.49677394  0.55757573     0.36500
N919        N  0.69331876  0.52045260  0.53971857    -0.90100
H920        H  0.68646295  0.49991114  0.59745803     0.17600
H921        H  0.84859754  0.44139668  0.55369293     0.17600
N922        N  0.83906049  0.41662026  0.61184143    -0.89200
H923        H  0.68448030  0.49676388  0.52148353     0.34900
H924        H  0.70690898  0.55447725  0.53128443     0.40000
H925        H  0.87310500  0.43629134  0.61182487     0.39700
H926        H  0.84516955  0.38199759  0.60119651     0.34500
C927        C  0.59942124  0.58883465  0.75893176    -0.27200
C928        C  0.64965725  0.60530829  0.75828279    -0.15300
C929        C  0.66358263  0.64696395  0.77608155     0.35400
C930        C  0.62681553  0.67216026  0.79344524    -0.26600
C931        C  0.57595751  0.65679296  0.79319522    -0.15900
C932        C  0.56259370  0.61416836  0.77589723     0.36500
N933        N  0.51138722  0.59734441  0.77441415    -0.90100
H934        H  0.58818046  0.55659530  0.74548690     0.17600
H935        H  0.63798362  0.70493535  0.80639039     0.17600
N936        N  0.71428540  0.66532384  0.77546796    -0.89200
H937        H  0.51043324  0.56000502  0.78181620     0.34900
H938        H  0.49973291  0.59837402  0.75155838     0.40000
H939        H  0.72824151  0.66521639  0.79784531     0.39700
H940        H  0.71324738  0.70251561  0.76775710     0.34500
C941        C  0.43835217  0.94970270  0.58804451    -0.27200
C942        C  0.48789375  0.93118792  0.58287801    -0.15300
C943        C  0.52731342  0.96597605  0.58011747     0.35400
C944        C  0.51614507  0.01775051  0.58098885    -0.26600
C945        C  0.46615727  0.03645309  0.58399419    -0.15900
C946        C  0.42722542  0.00162908  0.58849825     0.36500
N947        N  0.37622083  0.01844990  0.59249766    -0.90100
H948        H  0.40742660  0.92357966  0.59058431     0.17600
H949        H  0.54705544  0.04371390  0.57803042     0.17600
N950        N  0.57803773  0.94896513  0.57445571    -0.89200
H951        H  0.36332185  0.00449426  0.61338015     0.34900
H952        H  0.35416354  0.00281751  0.57513064     0.40000
H953        H  0.59082266  0.93066175  0.59418446     0.39700
H954        H  0.60212262  0.97944900  0.57108680     0.34500
C955        C  0.39271360  0.60926564  0.52905656    -0.27200
C956        C  0.37591536  0.64940300  0.54714027    -0.15300
C957        C  0.32361220  0.66101249  0.54782105     0.35400
C958        C  0.29032237  0.63520149  0.52841496    -0.26600
C959        C  0.30793987  0.59790111  0.50850506    -0.15900
C960        C  0.36446652  0.59259888  0.00146938     0.36500
N961        N  0.38516901  0.56403337  0.97675318    -0.90100
H962        H  0.43797383  0.61208656  0.01807694     0.17600
H963        H  0.25069626  0.64560317  0.52807066     0.17600
N964        N  0.30452105  0.69970693  0.56760734    -0.89200
H965        H  0.40956466  0.53692729  0.98594941     0.34900
H966        H  0.40679726  0.58819981  0.96331728     0.40000
H967        H  0.31046386  0.68775908  0.59010580     0.39700
H968        H  0.26547982  0.70409505  0.56485611     0.34500
C969        C  0.57721912  0.60712456  0.51206589    -0.27200
C970        C  0.59643289  0.65612440  0.51358479    -0.15300
C971        C  0.63723667  0.66914893  0.49481731     0.35400
C972        C  0.66104265  0.63531434  0.97360568    -0.26600
C973        C  0.64344326  0.58542105  0.97309204    -0.15900
C974        C  0.59873693  0.57404496  0.98936916     0.36500
N975        N  0.57619269  0.52536836  0.98890787    -0.90100
H976        H  0.54486082  0.59694743  0.52579797     0.17600
H977        H  0.69447365  0.64556456  0.96090696     0.17600
N978        N  0.65734998  0.71893787  0.49544261    -0.89200
H979        H  0.60153390  0.49940068  0.99842837     0.34900
H980        H  0.56825777  0.51577068  0.96626798     0.40000
H981        H  0.65554660  0.73354447  0.47327098     0.39700
H982        H  0.69536376  0.71653592  0.50187567     0.34500
C983        C  0.68975961  0.69028619  0.66805520    -0.27200
C984        C  0.71667650  0.65568447  0.64994999    -0.15300
C985        C  0.71315019  0.65962643  0.61797854     0.35400
C986        C  0.68022390  0.69518482  0.60466085    -0.26600
C987        C  0.64842137  0.72520279  0.62278729    -0.15900
C988        C  0.65489453  0.72410809  0.65484246     0.36500
N989        N  0.62506995  0.75532053  0.67447165    -0.90100
H990        H  0.69153582  0.68723146  0.69274550     0.17600
H991        H  0.67523570  0.69503334  0.58005624     0.17600
N992        N  0.74021028  0.62503006  0.59902299    -0.89200
H993        H  0.58697157  0.74700366  0.67114713     0.34900
H994        H  0.63069425  0.79270692  0.66807189     0.40000
H995        H  0.76284862  0.64578529  0.58418566     0.39700
H996        H  0.71392136  0.60540406  0.58583937     0.34500
C997        C  0.50090889  0.82562982  0.95699331    -0.27200
C998        C  0.47949975  0.78884391  0.97581398    -0.15300
C999        C  0.46852689  0.74143863  0.96339951     0.35400
C1000       C  0.47723612  0.73216729  0.93235353    -0.26600
C1001       C  0.49756194  0.76930971  0.91315583    -0.15900
C1002       C  0.50992132  0.81644627  0.92591356     0.36500
N1003       N  0.53166346  0.85523136  0.90755693    -0.90100
H1004       H  0.51123561  0.86167078  0.96655384     0.17600
H1005       H  0.46748011  0.69563664  0.92328712     0.17600
N1006       N  0.45077514  0.70174719  0.98254948    -0.89200
H1007       H  0.56640145  0.86501141  0.91722745     0.34900
H1008       H  0.50787276  0.88669519  0.90837201     0.40000
H1009       H  0.47669391  0.67203225  0.98132107     0.39700
H1010       H  0.41629595  0.68935689  0.97375086     0.34500
C1011       C  0.44023212  0.81749578  0.67479635    -0.27200
C1012       C  0.45346562  0.76939545  0.66412086    -0.15300
C1013       C  0.47569141  0.73459334  0.68481927     0.35400
C1014       C  0.48506800  0.74877757  0.71501913    -0.26600
C1015       C  0.47134780  0.79644039  0.72560122    -0.15900
C1016       C  0.44841214  0.83098887  0.70538531     0.36500
N1017       N  0.43372276  0.87989777  0.71579363    -0.90100
H1018       H  0.42376205  0.84500343  0.65936074     0.17600
H1019       H  0.50105681  0.72128575  0.73068872     0.17600
N1020       N  0.48871920  0.68456868  0.67555962    -0.89200
H1021       H  0.39493685  0.88422302  0.71194617     0.34900
H1022       H  0.45248389  0.90655859  0.70252794     0.40000
H1023       H  0.46897755  0.65938151  0.68936024     0.39700
H1024       H  0.52732006  0.67893456  0.67947771     0.34500
loop_ 
_geom_bond_atom_site_label_1 
_geom_bond_atom_site_label_2 
_geom_bond_distance 
_geom_bond_site_symmetry_2 
_ccdc_geom_bond_type 
O1           C16   1.269       .  A
O1         Al521   1.922       .  S
C2           O12   1.271       .  A
C2            O3   1.270       .  A
C2          C500   1.487       .  S
O3           Al5   1.899       .  S
O4            C6   1.259       .  A
O4           Al5   1.897       .  S
Al5          O13   1.919       .  S
Al5         O527   1.916       .  S
Al5          O14   1.778       .  S
C6           O19   1.276       .  A
C6          C430   1.506       .  S
O7           C17   1.266       .  A
O7           Al9   1.945       .  S
O8           C21   1.262       .  A
O8          Al18   1.895       .  S
Al9          O22   1.907       .  S
Al9          O19   1.961       .  S
Al9         O513   1.922       .  S
Al9          O14   1.783       .  S
O10          C17   1.256       .  A
O10         Al18   1.881       .  S
O11          C20   1.254       .  A
O11         Al18   1.899       .  S
O12         Al18   1.923       .  S
O13          C20   1.255       .  A
O14         Al18   1.767       .  S
O15          C16   1.272       .  A
O15        Al517   1.913       .  S
C16         C486   1.472       .  S
C17         C475   1.484       .  S
C20         C444   1.484       .  S
C21          O22   1.263       .  A
C21         C458   1.477       .  S
O23          C38   1.270       .  A
O23         Al31   1.920       .  S
C24          O34   1.272       .  A
C24          O25   1.269       .  A
C24         C402   1.480       .  S
O25         Al27   1.892       .  S
O26          C28   1.255       .  A
O26         Al27   1.881       .  S
Al27         O35   1.909       .  S
Al27         O37   1.908       .  S
Al27         O36   1.782       .  S
C28          O41   1.273       .  A
C28         C360   1.496       .  S
O29          C39   1.264       .  A
O29         Al31   1.932       .  S
O30          C43   1.261       .  A
O30         Al40   1.894       .  S
Al31         O44   1.905       .  S
Al31         O41   1.956       .  S
Al31         O36   1.776       .  S
O32          C39   1.259       .  A
O32         Al40   1.896       .  S
O33          C42   1.256       .  A
O33         Al40   1.903       .  S
O34         Al40   1.917       .  S
O35          C42   1.252       .  A
O36         Al40   1.767       .  S
O37          C38   1.273       .  A
C38         C388   1.471       .  S
C39         C472   1.483       .  S
C42         C377   1.484       .  S
C43          O44   1.263       .  A
C43         C416   1.476       .  S
O45          C60   1.266       .  A
O45         Al53   1.916       .  S
C46          O56   1.267       .  A
C46          O47   1.273       .  A
C46         C346   1.484       .  S
O47         Al49   1.922       .  S
O48          C50   1.257       .  A
O48         Al49   1.887       .  S
Al49         O57   1.912       .  S
Al49         O59   1.897       .  S
Al49         O58   1.765       .  S
C50          O63   1.264       .  A
C50         C318   1.482       .  S
O51          C61   1.277       .  A
O51         Al53   1.969       .  S
O52          C65   1.273       .  A
O52         Al62   1.909       .  S
Al53         O66   1.913       .  S
Al53         O63   1.932       .  S
Al53         O58   1.778       .  S
O54          C61   1.256       .  A
O54         Al62   1.883       .  S
O55          C64   1.253       .  A
O55         Al62   1.905       .  S
O56         Al62   1.887       .  S
O57          C64   1.256       .  A
O58         Al62   1.778       .  S
O59          C60   1.263       .  A
C60         C374   1.487       .  S
C61         C290   1.505       .  S
C64         C304   1.490       .  S
C65          O66   1.269       .  A
C65         C335   1.471       .  S
O67          C82   1.267       .  A
O67        Al587   1.923       .  S
C68          O78   1.269       .  A
C68          O69   1.270       .  A
C68         C391   1.481       .  S
O69         Al71   1.914       .  S
O70          C72   1.258       .  A
O70         Al71   1.893       .  S
Al71         O79   1.919       .  S
Al71         O81   1.886       .  S
Al71         O80   1.766       .  S
C72          O85   1.266       .  A
C72         C321   1.480       .  S
O73          C83   1.279       .  A
O73         Al75   1.982       .  S
O74          C87   1.272   1_556  A
O74        Al596   1.909       .  S
Al75         O85   1.936       .  S
Al75        O579   1.929       .  S
Al75        O600   1.914       .  S
Al75         O80   1.775       .  S
O76          C83   1.255       .  A
O76         Al84   1.877       .  S
O77          C86   1.255       .  A
O77         Al84   1.906       .  S
O78         Al84   1.898       .  S
O79          C86   1.258       .  A
O80         Al84   1.774       .  S
O81         C594   1.259       .  A
C82         O593   1.260       .  A
C82         C276   1.491   1_556  S
C83         C262   1.509       .  S
Al84        O586   1.907       .  S
C86         C461   1.493       .  S
C87          O88   1.267       .  A
C87         C405   1.469       .  S
O88        Al587   1.912   1_554  S
O89         C104   1.269       .  A
O89        Al609   1.916       .  S
C90         O100   1.270       .  A
C90          O91   1.269       .  A
C90         C332   1.479       .  S
O91         Al93   1.892       .  S
O92          C94   1.258       .  A
O92         Al93   1.895       .  S
Al93        O101   1.912       .  S
Al93        O615   1.915       .  S
Al93        O102   1.776       .  S
C94         O107   1.275       .  A
C94         C433   1.504       .  S
O95         C105   1.265       .  A
O95         Al97   1.938       .  S
O96         C109   1.261       .  A
O96        Al106   1.892       .  S
Al97        O110   1.906       .  S
Al97        O107   1.959       .  S
Al97        O601   1.916       .  S
Al97        O102   1.781       .  S
O98         C105   1.257       .  A
O98        Al106   1.885       .  S
O99         C108   1.256       .  A
O99        Al106   1.906       .  S
O100       Al106   1.915       .  S
O101        C108   1.253       .  A
O102       Al106   1.771       .  S
O103        C104   1.275       .  A
O103       Al605   1.908       .  S
C104        C349   1.470       .  S
C105        C248   1.480       .  S
C108        C279   1.483       .  S
C109        O110   1.263       .  A
C109        C237   1.476       .  S
O111        C126   1.269       .  A
O111       Al119   1.916       .  S
C112        O122   1.271       .  A
C112        O113   1.272       .  A
C112        C220   1.485       .  S
O113       Al115   1.895       .  S
O114        C116   1.254       .  A
O114       Al115   1.882       .  S
Al115       O123   1.906       .  S
Al115       O125   1.918       .  S
Al115       O124   1.780       .  S
C116        O129   1.271       .  A
C116        C363   1.492       .  S
O117        C127   1.264       .  A
O117       Al119   1.930       .  S
O118        C131   1.261       .  A
O118       Al128   1.891       .  S
Al119       O132   1.901       .  S
Al119       O129   1.948       .  S
Al119       O124   1.781       .  S
O120        C127   1.257       .  A
O120       Al128   1.885       .  S
O121        C130   1.254       .  A
O121       Al128   1.902       .  S
O122       Al128   1.917       .  S
O123        C130   1.252       .  A
O124       Al128   1.769       .  S
O125        C126   1.275       .  A
C126        C206   1.477       .  S
C127        C251   1.479       .  S
C130        C192   1.486       .  S
C131        O132   1.261       .  A
C131        C307   1.477       .  S
O133        C148   1.267       .  A
O133       Al653   1.922       .  S
C134        O144   1.272       .  A
C134        O135   1.274       .  A
C134        C209   1.487       .  S
O135       Al137   1.922       .  S
O136        C138   1.258       .  A
O136       Al137   1.891       .  S
Al137       O145   1.911       .  S
Al137       O147   1.887       .  S
Al137       O146   1.771       .  S
C138        O151   1.264       .  A
C138        C181   1.482       .  S
O139        C149   1.274       .  A
O139       Al141   1.965       .  S
O140        C153   1.274   1_556  A
O140       Al662   1.918       .  S
Al141       O151   1.929       .  S
Al141       O645   1.909       .  S
Al141       O666   1.916       .  S
Al141       O146   1.777       .  S
O142        C149   1.253       .  A
O142       Al150   1.881       .  S
O143        C152   1.251       .  A
O143       Al150   1.903       .  S
O144       Al150   1.901       .  S
O145        C152   1.254       .  A
O146       Al150   1.780       .  S
O147        C660   1.260       .  A
C148        O659   1.261       .  A
C148        C447   1.492   1_556  S
C149        C265   1.498       .  S
Al150       O652   1.922       .  S
C152        C234   1.488       .  S
C153        O154   1.265   1_554  A
C153        C223   1.469       .  S
O154       Al653   1.904       .  S
O155        C170   1.263       .  A
O155       Al163   1.906       .  S
C156        O166   1.269       .  A
C156        O157   1.273       .  A
C156        C489   1.487       .  S
O157       Al159   1.926       .  S
O158        C160   1.255       .  A
O158       Al159   1.880       .  S
Al159       O167   1.905       .  S
Al159       O169   1.895       .  S
Al159       O168   1.767       .  S
C160        O173   1.266       .  A
C160        C178   1.481       .  S
O161        C171   1.274       .  A
O161       Al163   1.957       .  S
O162        C175   1.271       .  A
O162       Al172   1.908       .  S
Al163       O176   1.927       .  S
Al163       O173   1.942       .  S
Al163       O168   1.782       .  S
O164        C171   1.257       .  A
O164       Al172   1.891       .  S
O165        C174   1.254       .  A
O165       Al172   1.908       .  S
O166       Al172   1.891       .  S
O167        C174   1.253       .  A
O168       Al172   1.777       .  S
O169        C170   1.263       .  A
C170        C195   1.477       .  S
C171        C293   1.499       .  S
C174        C419   1.488       .  S
C175        O176   1.269       .  A
C175        C503   1.469       .  S
C177        C178   1.406       .  A
C177        C182   1.408       .  A
C177        H184   1.084       .  S
C178        C179   1.406       .  A
C179        C180   1.407       .  A
C179        N186   1.433       .  S
C180        C181   1.407       .  A
C180        H185   1.085       .  S
C181        C182   1.416       .  A
C182        N183   1.438       .  S
N183        H187   1.045       .  S
N183        H188   1.045       .  S
N186        H189   1.045       .  S
N186        H190   1.046       .  S
C191        C192   1.411       .  A
C191        C196   1.405       .  A
C191        H198   1.083       .  S
C192        C193   1.411       .  A
C193        C194   1.399       .  A
C193        N200   1.432       .  S
C194        C195   1.403       .  A
C194        H199   1.082       .  S
C195        C196   1.406       .  A
C196        N197   1.432       .  S
N197        H201   1.045       .  S
N197        H202   1.046       .  S
N200        H203   1.045       .  S
N200        H204   1.046       .  S
C205        C206   1.406       .  A
C205        C210   1.403       .  A
C205        H212   1.084       .  S
C206        C207   1.410       .  A
C207        C208   1.404       .  A
C207        N214   1.439       .  S
C208        C209   1.409       .  A
C208        H213   1.083       .  S
C209        C210   1.411       .  A
C210        N211   1.433       .  S
N211        H215   1.046       .  S
N211        H216   1.046       .  S
N214        H217   1.046       .  S
N214        H218   1.045       .  S
C219        C220   1.405       .  A
C219        C224   1.394       .  A
C219        H226   1.084       .  S
C220        C221   1.421       .  A
C221        C222   1.404       .  A
C221        N228   1.438       .  S
C222        C223   1.399       .  A
C222        H227   1.084       .  S
C223        C224   1.415       .  A
C224        N225   1.434       .  S
N225        H229   1.046       .  S
N225        H230   1.043       .  S
N228        H231   1.045       .  S
N228        H232   1.046       .  S
C233        C238   1.403       .  A
C233        C746   1.410       .  A
C233        H240   1.083       .  S
C234        C235   1.413       .  A
C234        C745   1.410       .  A
C235        C236   1.407       .  A
C235        N242   1.437       .  S
C236        C749   1.404       .  A
C236        H241   1.084       .  S
C237        C238   1.404   1_554  A
C237        C748   1.404       .  A
C238        N239   1.432       .  S
N239        H243   1.045       .  S
N239        H244   1.046   1_556  S
N242        H245   1.045       .  S
N242        H246   1.046       .  S
C247        C248   1.407       .  A
C247        C252   1.405       .  A
C247        H254   1.084       .  S
C248        C249   1.409       .  A
C249        C250   1.410       .  A
C249        N256   1.437       .  S
C250        C251   1.406       .  A
C250        H255   1.084       .  S
C251        C252   1.411       .  A
C252        N253   1.432       .  S
N253        H257   1.044       .  S
N253        H258   1.045       .  S
N256        H259   1.045       .  S
N256        H260   1.046       .  S
C261        C262   1.422       .  A
C261        C266   1.404       .  A
C261        H268   1.083       .  S
C262        C263   1.411       .  A
C263        C264   1.409   1_655  A
C263        N270   1.431       .  S
C264        C265   1.418       .  A
C264        H269   1.084       .  S
C265        C266   1.407   1_455  A
C266        N267   1.432   1_655  S
N267        H271   1.045       .  S
N267        H272   1.046       .  S
N270        H273   1.046       .  S
N270        H274   1.044       .  S
C275        C276   1.405       .  A
C275        C280   1.403       .  A
C275        H282   1.084       .  S
C276        C277   1.419       .  A
C277        C278   1.399       .  A
C277        N796   1.433   1_554  S
C278        C279   1.399       .  A
C278        H283   1.083       .  S
C279        C280   1.418       .  A
C280        N281   1.433       .  S
N281        H285   1.044       .  S
N281        H286   1.046       .  S
N284        C789   1.433       .  S
N284        H287   1.044       .  S
N284        H800   1.046       .  S
H288        N796   1.046       .  S
C289        C290   1.419       .  A
C289        C294   1.411   1_545  A
C289        H296   1.083       .  S
C290        C291   1.411       .  A
C291        C292   1.407   1_545  A
C291        N298   1.431       .  S
C292        C293   1.417       .  A
C292        H297   1.084       .  S
C293        C294   1.406       .  A
C294        N295   1.437       .  S
N295        H299   1.046       .  S
N295        H300   1.045       .  S
N298        H301   1.045       .  S
N298        H302   1.045       .  S
C303        C304   1.409       .  A
C303        C308   1.398       .  A
C303        H310   1.083       .  S
C304        C305   1.413       .  A
C305        C306   1.405       .  A
C305        N312   1.435       .  S
C306        C307   1.403       .  A
C306        H311   1.083       .  S
C307        C308   1.411       .  A
C308        N309   1.432       .  S
N309        H313   1.045       .  S
N309        H314   1.046       .  S
N312        H315   1.046       .  S
N312        H316   1.046       .  S
C317        C318   1.408       .  A
C317        C322   1.410       .  A
C317        H324   1.084       .  S
C318        C319   1.406       .  A
C319        C320   1.407       .  A
C319        N326   1.431       .  S
C320        C321   1.406       .  A
C320        H325   1.085       .  S
C321        C322   1.407       .  A
C322        N323   1.432       .  S
N323        H327   1.046       .  S
N323        H328   1.045       .  S
N326        H329   1.042       .  S
N326        H330   1.046       .  S
C331        C332   1.410       .  A
C331        C336   1.400       .  A
C331        H338   1.084       .  S
C332        C333   1.409       .  A
C333        C334   1.399       .  A
C333        N340   1.433       .  S
C334        C335   1.405       .  A
C334        H339   1.084       .  S
C335        C336   1.407       .  A
C336        N337   1.434       .  S
N337        H341   1.045       .  S
N337        H342   1.046       .  S
N340        H343   1.046       .  S
N340        H344   1.046       .  S
C345        C346   1.407       .  A
C345        C350   1.396       .  A
C345        H352   1.084       .  S
C346        C347   1.421       .  A
C347        C348   1.399       .  A
C347        N354   1.433       .  S
C348        C349   1.403       .  A
C348        H353   1.084       .  S
C349        C350   1.403       .  A
C350        N351   1.429       .  S
N351        H355   1.046       .  S
N351        H356   1.042       .  S
N354        H357   1.045       .  S
N354        H358   1.046       .  S
C359        C360   1.417       .  A
C359        C364   1.405       .  A
C359        H366   1.083       .  S
C360        C361   1.404       .  A
C361        C362   1.408   1_655  A
C361        N368   1.432       .  S
C362        C363   1.416       .  A
C362        H367   1.084       .  S
C363        C364   1.403   1_455  A
C364        N365   1.432   1_655  S
N365        H369   1.046       .  S
N365        H370   1.045   1_455  S
N368        H371   1.046       .  S
N368        H372   1.045       .  S
C373        C374   1.405       .  A
C373        C378   1.408       .  A
C373        H380   1.084       .  S
C374        C375   1.414       .  A
C375        C376   1.398       .  A
C375        N382   1.430       .  S
C376        C377   1.399       .  A
C376        H381   1.084       .  S
C377        C378   1.415       .  A
C378        N379   1.432       .  S
N379        H383   1.046       .  S
N379        H384   1.046       .  S
N382        H385   1.044       .  S
N382        H386   1.046       .  S
C387        C388   1.404       .  A
C387        C392   1.400       .  A
C387        H394   1.084       .  S
C388        C389   1.409       .  A
C389        C390   1.401       .  A
C389        N396   1.438       .  S
C390        C391   1.409       .  A
C390        H395   1.083       .  S
C391        C392   1.410       .  A
C392        N393   1.432       .  S
N393        H397   1.045       .  S
N393        H398   1.046       .  S
N396        H399   1.046       .  S
N396        H400   1.045       .  S
C401        C402   1.408       .  A
C401        C406   1.393       .  A
C401        H408   1.083       .  S
C402        C403   1.412       .  A
C403        C404   1.401       .  A
C403        N410   1.433       .  S
C404        C405   1.405       .  A
C404        H409   1.084       .  S
C405        C406   1.411       .  A
C406        N407   1.433       .  S
N407        H411   1.045       .  S
N407        H412   1.045       .  S
N410        H413   1.046       .  S
N410        H414   1.046       .  S
C415        C416   1.404       .  A
C415        C420   1.403       .  A
C415        H422   1.084       .  S
C416        C417   1.405       .  A
C417        C418   1.402       .  A
C417        N424   1.432       .  S
C418        C419   1.409       .  A
C418        H423   1.083       .  S
C419        C420   1.413       .  A
C420        N421   1.432       .  S
N421        H425   1.046       .  S
N421        H426   1.046       .  S
N424        H427   1.045       .  S
N424        H428   1.046       .  S
C429        C430   1.417       .  A
C429        C434   1.410   1_565  A
C429        H436   1.083       .  S
C430        C431   1.410       .  A
C431        C432   1.416   1_565  A
C431        N438   1.437       .  S
C432        C433   1.418       .  A
C432        H437   1.083       .  S
C433        C434   1.404       .  A
C434        N435   1.432       .  S
N435        H439   1.045       .  S
N435        H440   1.046       .  S
N438        H441   1.046       .  S
N438        H442   1.045       .  S
C443        C444   1.400       .  A
C443        C960   1.401       .  A
C443        H962   1.084       .  S
C444        C445   1.411       .  A
C445        C446   1.408       .  A
C445        N452   1.432       .  S
C446        C447   1.406       .  A
C446        H451   1.083       .  S
C447        C960   1.418       .  A
C448        C955   1.400       .  A
C448        C959   1.414       .  A
C448        N449   1.432       .  S
N449        H453   1.046       .  S
N449        H454   1.046       .  S
H450        C955   1.084       .  S
N452        H455   1.046       .  S
N452        H456   1.045       .  S
C457        C458   1.403       .  A
C457        C974   1.397   1_554  A
C457        H464   1.084       .  S
C458        C459   1.405   1_554  A
C459        C972   1.403       .  A
C459        N466   1.432       .  S
C460        C461   1.411       .  A
C460        C971   1.403       .  A
C460        H465   1.083       .  S
C461        C462   1.418       .  A
C462        C969   1.400       .  A
C462        N463   1.431       .  S
N463        H467   1.044       .  S
N463        H468   1.045       .  S
N466        H469   1.046       .  S
N466        H470   1.046       .  S
C471        C472   1.406       .  A
C471        C476   1.405       .  A
C471        H478   1.085       .  S
C472        C473   1.406       .  A
C473        C474   1.411       .  A
C473        N480   1.432       .  S
C474        C475   1.408       .  A
C474        H479   1.084       .  S
C475        C476   1.414       .  A
C476        N477   1.433       .  S
N477        H481   1.044       .  S
N477        H482   1.045       .  S
N480        H483   1.046       .  S
N480        H484   1.045       .  S
C485        C486   1.401       .  A
C485        C490   1.402       .  A
C485        H492   1.084       .  S
C486        C487   1.407       .  A
C487        C488   1.402       .  A
C487        N494   1.433       .  S
C488        C489   1.409       .  A
C488        H493   1.083       .  S
C489        C490   1.415       .  A
C490        N491   1.433       .  S
N491        H495   1.045       .  S
N491        H496   1.046       .  S
N494        H497   1.046       .  S
N494        H498   1.045       .  S
C499        C500   1.408       .  A
C499        C504   1.404       .  A
C499        H506   1.084       .  S
C500        C501   1.416       .  A
C501        C502   1.401       .  A
C501        N508   1.433       .  S
C502        C503   1.400       .  A
C502        H507   1.085       .  S
C503        C504   1.405       .  A
C504        N505   1.432       .  S
N505        H509   1.045       .  S
N505        H510   1.046       .  S
N508        H511   1.046       .  S
N508        H512   1.046       .  S
O513        C528   1.268       .  A
C514        O524   1.269       .  A
C514        O515   1.271       .  A
C514       C1012   1.484       .  S
O515       Al517   1.902       .  S
O516        C518   1.256       .  A
O516       Al517   1.890       .  S
Al517       O525   1.904       .  S
Al517       O526   1.778       .  S
C518        O531   1.274       .  A
C518        C942   1.497       .  S
O519        C529   1.265       .  A
O519       Al521   1.936       .  S
O520        C533   1.262       .  A
O520       Al530   1.896       .  S
Al521       O534   1.910       .  S
Al521       O531   1.955       .  S
Al521       O526   1.776       .  S
O522        C529   1.258       .  A
O522       Al530   1.891       .  S
O523        C532   1.256       .  A
O523       Al530   1.904       .  S
O524       Al530   1.917       .  S
O525        C532   1.253       .  A
O526       Al530   1.768       .  S
O527        C528   1.273       .  A
C528        C998   1.476   1_554  S
C529        C987   1.482       .  S
C532        C956   1.483       .  S
C533        O534   1.264       .  A
C533        C970   1.481       .  S
O535        C550   1.269       .  A
O535       Al543   1.921       .  S
C536        O546   1.272       .  A
C536        O537   1.269       .  A
C536        C914   1.478       .  S
O537       Al539   1.889       .  S
O538        C540   1.255       .  A
O538       Al539   1.881       .  S
Al539       O547   1.905       .  S
Al539       O549   1.909       .  S
Al539       O548   1.779       .  S
C540        O553   1.275       .  A
C540        C872   1.498       .  S
O541        C551   1.265       .  A
O541       Al543   1.936       .  S
O542        C555   1.261       .  A
O542       Al552   1.887       .  S
Al543       O556   1.912       .  S
Al543       O553   1.961       .  S
Al543       O548   1.779       .  S
O544        C551   1.258       .  A
O544       Al552   1.889       .  S
O545        C554   1.257       .  A
O545       Al552   1.906       .  S
O546       Al552   1.918       .  S
O547        C554   1.251       .  A
O548       Al552   1.766       .  S
O549        C550   1.273       .  A
C550        C900   1.470       .  S
C551        C984   1.482       .  S
C554        C889   1.479       .  S
C555        O556   1.264       .  A
C555        C928   1.478       .  S
O557        C572   1.267       .  A
O557       Al565   1.920       .  S
C558        O568   1.269       .  A
C558        O559   1.271       .  A
C558        C858   1.487       .  S
O559       Al561   1.915       .  S
O560        C562   1.258       .  A
O560       Al561   1.892       .  S
Al561       O569   1.912       .  S
Al561       O571   1.890       .  S
Al561       O570   1.765       .  S
C562        O575   1.264       .  A
C562        C830   1.482       .  S
O563        C573   1.278       .  A
O563       Al565   1.974       .  S
O564        C577   1.274       .  A
O564       Al574   1.918       .  S
Al565       O578   1.914       .  S
Al565       O575   1.934       .  S
Al565       O570   1.778       .  S
O566        C573   1.256       .  A
O566       Al574   1.884       .  S
O567        C576   1.254       .  A
O567       Al574   1.909       .  S
O568       Al574   1.900       .  S
O569        C576   1.256       .  A
O570       Al574   1.776       .  S
O571        C572   1.261       .  A
C572        C886   1.488       .  S
C573        C802   1.506       .  S
C576        C816   1.489       .  S
C577        O578   1.268       .  A
C577        C847   1.478       .  S
O579        C594   1.268       .  A
C580        O590   1.268       .  A
C580        O581   1.268       .  A
C580        C903   1.483       .  S
O581       Al583   1.911       .  S
O582        C584   1.258       .  A
O582       Al583   1.888       .  S
Al583       O591   1.906       .  S
Al583       O593   1.891       .  S
Al583       O592   1.768       .  S
C584        O597   1.266       .  A
C584        C833   1.482       .  S
O585        C595   1.278       .  A
O585       Al587   1.974       .  S
O586        C599   1.273       .  A
Al587       O597   1.941       .  S
Al587       O592   1.777       .  S
O588        C595   1.255       .  A
O588       Al596   1.874       .  S
O589        C598   1.256       .  A
O589       Al596   1.910       .  S
O590       Al596   1.901       .  S
O591        C598   1.256       .  A
O592       Al596   1.774       .  S
C594        C788   1.492       .  S
C595        C774   1.507       .  S
C598        C973   1.491       .  S
C599        O600   1.269       .  A
C599        C917   1.473       .  S
O601        C616   1.267       .  A
C602        O612   1.274       .  A
C602        O603   1.271       .  A
C602        C844   1.483       .  S
O603       Al605   1.892       .  S
O604        C606   1.253       .  A
O604       Al605   1.874       .  S
Al605       O613   1.910       .  S
Al605       O614   1.779       .  S
C606        O619   1.272       .  A
C606        C945   1.502       .  S
O607        C617   1.263       .  A
O607       Al609   1.926       .  S
O608        C621   1.259       .  A
O608       Al618   1.888       .  S
Al609       O622   1.912       .  S
Al609       O619   1.964       .  S
Al609       O614   1.788       .  S
O610        C617   1.256       .  A
O610       Al618   1.879       .  S
O611        C620   1.253       .  A
O611       Al618   1.904       .  S
O612       Al618   1.926       .  S
O613        C620   1.249       .  A
O614       Al618   1.770       .  S
O615        C616   1.273       .  A
C616        C861   1.474   1_554  S
C617        C760   1.476       .  S
C620        C791   1.486       .  S
C621        O622   1.263       .  A
C621        C749   1.476       .  S
O623        C638   1.268       .  A
O623       Al631   1.914       .  S
C624        O634   1.272       .  A
C624        O625   1.272       .  A
C624        C732   1.489       .  S
O625       Al627   1.898       .  S
O626        C628   1.255       .  A
O626       Al627   1.880       .  S
Al627       O635   1.910       .  S
Al627       O637   1.915       .  S
Al627       O636   1.778       .  S
C628        O641   1.273       .  A
C628        C875   1.496       .  S
O629        C639   1.264       .  A
O629       Al631   1.932       .  S
O630        C643   1.261       .  A
O630       Al640   1.889       .  S
Al631       O644   1.914       .  S
Al631       O641   1.956       .  S
Al631       O636   1.785       .  S
O632        C639   1.256       .  A
O632       Al640   1.878       .  S
O633        C642   1.254       .  A
O633       Al640   1.905       .  S
O634       Al640   1.925       .  S
O635        C642   1.252       .  A
O636       Al640   1.768       .  S
O637        C638   1.274       .  A
C638        C718   1.471       .  S
C639        C763   1.476       .  S
C642        C704   1.491       .  S
C643        O644   1.263       .  A
C643        C819   1.487       .  S
O645        C660   1.264       .  A
C646        O656   1.269       .  A
C646        O647   1.271       .  A
C646        C721   1.484       .  S
O647       Al649   1.919       .  S
O648        C650   1.259       .  A
O648       Al649   1.898       .  S
Al649       O657   1.913       .  S
Al649       O659   1.895       .  S
Al649       O658   1.770       .  S
C650        O663   1.264       .  A
C650        C693   1.481       .  S
O651        C661   1.276       .  A
O651       Al653   1.961       .  S
O652        C665   1.275       .  A
Al653       O663   1.930       .  S
Al653       O658   1.773       .  S
O654        C661   1.255       .  A
O654       Al662   1.882       .  S
O655        C664   1.254       .  A
O655       Al662   1.904       .  S
O656       Al662   1.895       .  S
O657        C664   1.257       .  A
O658       Al662   1.780       .  S
C660        C959   1.482       .  S
C661        C777   1.498       .  S
C664        C746   1.489       .  S
C665        O666   1.269       .  A
C665        C735   1.475       .  S
O667        C682   1.266       .  A
O667       Al675   1.921       .  S
C668        O678   1.268       .  A
C668        O669   1.273       .  A
C668       C1001   1.488       .  S
O669       Al671   1.927       .  S
O670        C672   1.255       .  A
O670       Al671   1.875       .  S
Al671       O679   1.900       .  S
Al671       O681   1.891       .  S
Al671       O680   1.766       .  S
C672        O685   1.266       .  A
C672        C690   1.483       .  S
O673        C683   1.278       .  A
O673       Al675   1.975       .  S
O674        C687   1.272       .  A
O674       Al684   1.902       .  S
Al675       O688   1.924       .  S
Al675       O685   1.945       .  S
Al675       O680   1.784       .  S
O676        C683   1.254       .  A
O676       Al684   1.876       .  S
O677        C686   1.253       .  A
O677       Al684   1.907       .  S
O678       Al684   1.892       .  S
O679        C686   1.253       .  A
O680       Al684   1.779       .  S
O681        C682   1.262       .  A
C682        C707   1.484       .  S
C683        C805   1.503       .  S
C686        C931   1.487       .  S
C687        O688   1.269       .  A
C687       C1015   1.469       .  S
C689        C690   1.409       .  A
C689        C694   1.413       .  A
C689        H696   1.084       .  S
C690        C691   1.407       .  A
C691        C692   1.405       .  A
C691        N698   1.432       .  S
C692        C693   1.404       .  A
C692        H697   1.085       .  S
C693        C694   1.407       .  A
C694        N695   1.431       .  S
N695        H699   1.045       .  S
N695        H700   1.045       .  S
N698        H701   1.045       .  S
N698        H702   1.045       .  S
C703        C704   1.411       .  A
C703        C708   1.408       .  A
C703        H710   1.083       .  S
C704        C705   1.411       .  A
C705        C706   1.400       .  A
C705        N712   1.433       .  S
C706        C707   1.405       .  A
C706        H711   1.083       .  S
C707        C708   1.407       .  A
C708        N709   1.432       .  S
N709        H713   1.046       .  S
N709        H714   1.046       .  S
N712        H715   1.046       .  S
N712        H716   1.046       .  S
C717        C718   1.404       .  A
C717        C722   1.402       .  A
C717        H724   1.084       .  S
C718        C719   1.406       .  A
C719        C720   1.400       .  A
C719        N726   1.433       .  S
C720        C721   1.409       .  A
C720        H725   1.083       .  S
C721        C722   1.413       .  A
C722        N723   1.433       .  S
N723        H727   1.046       .  S
N723        H728   1.046       .  S
N726        H729   1.045       .  S
N726        H730   1.045       .  S
C731        C732   1.406       .  A
C731        C736   1.397       .  A
C731        H738   1.084       .  S
C732        C733   1.418       .  A
C733        C734   1.405       .  A
C733        N740   1.433       .  S
C734        C735   1.401       .  A
C734        H739   1.085       .  S
C735        C736   1.415       .  A
C736        N737   1.433       .  S
N737        H741   1.046       .  S
N737        H742   1.043       .  S
N740        H743   1.045       .  S
N740        H744   1.046       .  S
C745        C750   1.403       .  A
C745        H752   1.084       .  S
C746        C747   1.414       .  A
C747        C748   1.405   1_556  A
C747        N754   1.436       .  S
C748        H753   1.084       .  S
C749        C750   1.404       .  A
C750        N751   1.432       .  S
N751        H755   1.045       .  S
N751        H756   1.046       .  S
N754        H757   1.045       .  S
N754        H758   1.046   1_556  S
C759        C760   1.406       .  A
C759        C764   1.403       .  A
C759        H766   1.084       .  S
C760        C761   1.408       .  A
C761        C762   1.410       .  A
C761        N768   1.437       .  S
C762        C763   1.406       .  A
C762        H767   1.084       .  S
C763        C764   1.411       .  A
C764        N765   1.433       .  S
N765        H769   1.045       .  S
N765        H770   1.045       .  S
N768        H771   1.045       .  S
N768        H772   1.046       .  S
C773        C774   1.421       .  A
C773        C778   1.401       .  A
C773        H780   1.083       .  S
C774        C775   1.411       .  A
C775        C776   1.410   1_655  A
C775        N782   1.431       .  S
C776        C777   1.419       .  A
C776        H781   1.084       .  S
C777        C778   1.406   1_455  A
C778        N779   1.432   1_655  S
N779        H783   1.045       .  S
N779        H784   1.046       .  S
N782        H785   1.046       .  S
N782        H786   1.045       .  S
C787        C788   1.406       .  A
C787        C792   1.406       .  A
C787        H794   1.084       .  S
C788        C789   1.419       .  A
C789        C790   1.397       .  A
C790        C791   1.398       .  A
C790        H795   1.083       .  S
C791        C792   1.420       .  A
C792        N793   1.432       .  S
N793        H797   1.044       .  S
N793        H798   1.046       .  S
N796        H799   1.045       .  S
C801        C802   1.421       .  A
C801        C806   1.414   1_545  A
C801        H808   1.083       .  S
C802        C803   1.409       .  A
C803        C804   1.406   1_545  A
C803        N810   1.432       .  S
C804        C805   1.419       .  A
C804        H809   1.084       .  S
C805        C806   1.405       .  A
C806        N807   1.437       .  S
N807        H811   1.046       .  S
N807        H812   1.045       .  S
N810        H813   1.045       .  S
N810        H814   1.045       .  S
C815        C816   1.410       .  A
C815        C820   1.403       .  A
C815        H822   1.084       .  S
C816        C817   1.408       .  A
C817        C818   1.399       .  A
C817        N824   1.429       .  S
C818        C819   1.405       .  A
C818        H823   1.084       .  S
C819        C820   1.415       .  A
C820        N821   1.432       .  S
N821        H825   1.045       .  S
N821        H826   1.046       .  S
N824        H827   1.046       .  S
N824        H828   1.045       .  S
C829        C830   1.407       .  A
C829        C834   1.408       .  A
C829        H836   1.084       .  S
C830        C831   1.406       .  A
C831        C832   1.410       .  A
C831        N838   1.432       .  S
C832        C833   1.407       .  A
C832        H837   1.084       .  S
C833        C834   1.407       .  A
C834        N835   1.432       .  S
N835        H839   1.045       .  S
N835        H840   1.045       .  S
N838        H841   1.046       .  S
N838        H842   1.045       .  S
C843        C844   1.409       .  A
C843        C848   1.402       .  A
C843        H850   1.084       .  S
C844        C845   1.410       .  A
C845        C846   1.401       .  A
C845        N852   1.433       .  S
C846        C847   1.406       .  A
C846        H851   1.084       .  S
C847        C848   1.408       .  A
C848        N849   1.433       .  S
N849        H853   1.045       .  S
N849        H854   1.045       .  S
N852        H855   1.046       .  S
N852        H856   1.046       .  S
C857        C858   1.408       .  A
C857        C862   1.397       .  A
C857        H864   1.084       .  S
C858        C859   1.419       .  A
C859        C860   1.400       .  A
C859        N866   1.432       .  S
C860        C861   1.404       .  A
C860        H865   1.084       .  S
C861        C862   1.404       .  A
C862        N863   1.430       .  S
N863        H867   1.046       .  S
N863        H868   1.045       .  S
N866        H869   1.045       .  S
N866        H870   1.046       .  S
C871        C872   1.419       .  A
C871        C876   1.409       .  A
C871        H878   1.084       .  S
C872        C873   1.403       .  A
C873        C874   1.407   1_655  A
C873        N880   1.431       .  S
C874        C875   1.417       .  A
C874        H879   1.084       .  S
C875        C876   1.404   1_455  A
C876        N877   1.432   1_655  S
N877        H881   1.046   1_455  S
N877        H882   1.045   1_455  S
N880        H883   1.046       .  S
N880        H884   1.045       .  S
C885        C886   1.406       .  A
C885        C890   1.407       .  A
C885        H892   1.084       .  S
C886        C887   1.418       .  A
C887        C888   1.397       .  A
C887        N894   1.432       .  S
C888        C889   1.397       .  A
C888        H893   1.084       .  S
C889        C890   1.413       .  A
C890        N891   1.433       .  S
N891        H895   1.045       .  S
N891        H896   1.046       .  S
N894        H897   1.044       .  S
N894        H898   1.046       .  S
C899        C900   1.403       .  A
C899        C904   1.403       .  A
C899        H906   1.084       .  S
C900        C901   1.404       .  A
C901        C902   1.397       .  A
C901        N908   1.431       .  S
C902        C903   1.408       .  A
C902        H907   1.084       .  S
C903        C904   1.413       .  A
C904        N905   1.432       .  S
N905        H909   1.046       .  S
N905        H910   1.046       .  S
N908        H911   1.046       .  S
N908        H912   1.045       .  S
C913        C914   1.406       .  A
C913        C918   1.393       .  A
C913        H920   1.084       .  S
C914        C915   1.410       .  A
C915        C916   1.400       .  A
C915        N922   1.433       .  S
C916        C917   1.405       .  A
C916        H921   1.084       .  S
C917        C918   1.413       .  A
C918        N919   1.431       .  S
N919        H923   1.045       .  S
N919        H924   1.044       .  S
N922        H925   1.046       .  S
N922        H926   1.046       .  S
C927        C928   1.404       .  A
C927        C932   1.399       .  A
C927        H934   1.084       .  S
C928        C929   1.407       .  A
C929        C930   1.405       .  A
C929        N936   1.432       .  S
C930        C931   1.410       .  A
C930        H935   1.084       .  S
C931        C932   1.412       .  A
C932        N933   1.432       .  S
N933        H937   1.045       .  S
N933        H938   1.046       .  S
N936        H939   1.045       .  S
N936        H940   1.046       .  S
C941        C942   1.418       .  A
C941        C946   1.412   1_565  A
C941        H948   1.084       .  S
C942        C943   1.405       .  A
C943        C944   1.409   1_565  A
C943        N950   1.437       .  S
C944        C945   1.418       .  A
C944        H949   1.083       .  S
C945        C946   1.405       .  A
C946        N947   1.432       .  S
N947        H951   1.046       .  S
N947        H952   1.045       .  S
N950        H953   1.045       .  S
N950        H954   1.046       .  S
C955        C956   1.402       .  A
C956        C957   1.417       .  A
C957        C958   1.405       .  A
C957        N964   1.438       .  S
C958        C959   1.402       .  A
C958        H963   1.083       .  S
C960        N961   1.433   1_554  S
N961        H965   1.044       .  S
N961        H966   1.046       .  S
N964        H967   1.045       .  S
N964        H968   1.046       .  S
C969        C970   1.405       .  A
C969        H976   1.084       .  S
C970        C971   1.405       .  A
C971        N978   1.432       .  S
C972        C973   1.411       .  A
C972        H977   1.083       .  S
C973        C974   1.418       .  A
C974        N975   1.431       .  S
N975        H979   1.045       .  S
N975        H980   1.045       .  S
N978        H981   1.046       .  S
N978        H982   1.046       .  S
C983        C984   1.409       .  A
C983        C988   1.407       .  A
C983        H990   1.084       .  S
C984        C985   1.406       .  A
C985        C986   1.407       .  A
C985        N992   1.432       .  S
C986        C987   1.406       .  A
C986        H991   1.085       .  S
C987        C988   1.413       .  A
C988        N989   1.433       .  S
N989        H993   1.044       .  S
N989        H994   1.045       .  S
N992        H995   1.045       .  S
N992        H996   1.046       .  S
C997        C998   1.403       .  A
C997       C1002   1.404       .  A
C997       H1004   1.084       .  S
C998        C999   1.407       .  A
C999       C1000   1.402       .  A
C999       N1006   1.431       .  S
C1000      C1001   1.408       .  A
C1000      H1005   1.084       .  S
C1001      C1002   1.414       .  A
C1002      N1003   1.432       .  S
N1003      H1007   1.046       .  S
N1003      H1008   1.046       .  S
N1006      H1009   1.046       .  S
N1006      H1010   1.045       .  S
C1011      C1012   1.407       .  A
C1011      C1016   1.403       .  A
C1011      H1018   1.084       .  S
C1012      C1013   1.418       .  A
C1013      C1014   1.397       .  A
C1013      N1020   1.433       .  S
C1014      C1015   1.398       .  A
C1014      H1019   1.085       .  S
C1015      C1016   1.408       .  A
C1016      N1017   1.432       .  S
N1017      H1021   1.046       .  S
N1017      H1022   1.046       .  S
N1020      H1023   1.046       .  S
N1020      H1024   1.045       .  S
