geometry optimzed in LAMMPS
_audit_creation_date              2020-11-30 
_audit_creation_method            'lammps2cif' 
_symmetry_space_group_name_H-M    'P1' 
_symmetry_Int_Tables_number       1 
_symmetry_cell_setting            triclinic 
loop_ 
_symmetry_equiv_pos_as_xyz 
  x,y,z 
_cell_length_a                    40.64689593 
_cell_length_b                    40.698381448976996 
_cell_length_c                    43.17638575605407 
_cell_angle_alpha                 89.76972967165351 
_cell_angle_beta                  89.79678804537107 
_cell_angle_gamma                 121.0013960640955 
loop_ 
_atom_site_label 
_atom_site_type_symbol 
_atom_site_fract_x 
_atom_site_fract_y 
_atom_site_fract_z 
_atom_site_charge 
Fe1        Fe  0.36307804  0.55712837  0.58363371     1.65800
Fe2        Fe  0.40074402  0.51366160  0.62312759     1.73200
Fe3        Fe  0.30326148  0.47338009  0.61748685     1.54400
O4          O  0.28162527  0.51081515  0.61900810    -0.81100
O5          O  0.37935384  0.45904367  0.60798772    -0.79400
O6          O  0.33368714  0.56814972  0.61597617    -0.83600
O7          O  0.31377803  0.52458673  0.55804411    -0.78400
O8          O  0.31476959  0.48202911  0.66459098    -0.80200
O9          O  0.42935749  0.53124570  0.58002714    -0.83000
C10         C  0.29362523  0.48933815  0.55126148     0.97800
C11         C  0.29809186  0.54721475  0.62100875     1.05200
O12         O  0.35594932  0.51434617  0.60812040    -1.11900
O13         O  0.42723871  0.56869102  0.64044110    -0.74400
O14         O  0.41286578  0.59794088  0.60439485    -0.77900
O15         O  0.28989408  0.46356111  0.57028168    -0.78600
C16         C  0.43034295  0.59862494  0.62870668     0.96700
O17         O  0.39294139  0.54623010  0.55157882    -0.76500
O18         O  0.37558840  0.49548249  0.66711985    -0.81700
C19         C  0.34687640  0.42914107  0.61183320     0.99300
C20         C  0.34413729  0.48828303  0.68008770     1.05200
O21         O  0.31658852  0.42993210  0.61776641    -0.77300
C22         C  0.41913278  0.53816391  0.55402622     1.03500
Fe23       Fe  0.20161542  0.67474354  0.57256524     1.65800
Fe24       Fe  0.13238060  0.62206408  0.62637218     1.73200
Fe25       Fe  0.17272457  0.72035086  0.62217962     1.54400
O26         O  0.23205721  0.74816636  0.62643974    -0.81100
O27         O  0.08750793  0.63224309  0.62191213    -0.79400
O28         O  0.24992452  0.71885406  0.59261388    -0.83600
O29         O  0.19404889  0.71244782  0.54605195    -0.78400
O30         O  0.17026021  0.70579479  0.66842865    -0.80200
O31         O  0.11673770  0.59170412  0.58473086    -0.83000
C32         C  0.18689611  0.73874542  0.55130541     0.97800
C33         C  0.25755473  0.74390478  0.61317830     1.05200
O34         O  0.16857007  0.67240309  0.60690375    -1.11900
O35         O  0.17464689  0.60847906  0.63375468    -0.74400
O36         O  0.21475873  0.63790011  0.59439909    -0.77900
O37         O  0.17769010  0.74433802  0.57811827    -0.78600
C38         C  0.20460564  0.61658033  0.61832718     0.96700
O39         O  0.15746379  0.63075448  0.54853927    -0.76500
O40         O  0.14241565  0.64263877  0.67108553    -0.81700
C41         C  0.08456749  0.66199458  0.62100796     0.99300
C42         C  0.15771817  0.67511523  0.68393523     1.05200
O43         O  0.11334039  0.69619786  0.62049182    -0.77300
C44         C  0.12883727  0.59895403  0.55690490     1.03500
Fe45       Fe  0.47503394  0.79431591  0.59083023     1.65800
Fe46       Fe  0.50005105  0.87801749  0.62434558     1.73200
Fe47       Fe  0.55801610  0.84056312  0.62802589     1.54400
O48         O  0.52934532  0.78073942  0.63592663    -0.81100
O49         O  0.55257800  0.92023903  0.60852720    -0.79400
O50         O  0.46746266  0.75851234  0.62703969    -0.83600
O51         O  0.51562363  0.78398038  0.57142246    -0.78400
O52         O  0.54522679  0.84598309  0.67328959    -0.80200
O53         O  0.47894109  0.87571666  0.57960767    -0.83000
C54         C  0.55099086  0.80583637  0.56533657     0.97800
C55         C  0.49397415  0.75419412  0.63807134     1.05200
O56         O  0.51116963  0.83799557  0.61473264    -1.11900
O57         O  0.44529490  0.84067322  0.64098774    -0.74400
O58         O  0.42700355  0.79660055  0.60467976    -0.77900
O59         O  0.57251298  0.83433942  0.58248551    -0.78600
C60         C  0.41927306  0.81400452  0.62511143     0.96700
O61         O  0.48348654  0.83011170  0.55462145    -0.76500
O62         O  0.51958526  0.88294620  0.67000068    -0.81700
C63         C  0.58588019  0.92700864  0.61456721     0.99300
C64         C  0.53283981  0.86580811  0.68592412     1.05200
O65         O  0.59231986  0.90088654  0.62351390    -0.77300
C66         C  0.47643162  0.85704644  0.55508114     1.03500
Fe67       Fe  0.20721610  0.54973045  0.41552822     1.65800
Fe68       Fe  0.12307216  0.51387818  0.37869967     1.73200
Fe69       Fe  0.17280234  0.46654048  0.37585907     1.54400
O70         O  0.22848894  0.50231632  0.35958709    -0.81100
O71         O  0.08729273  0.45645464  0.37745716    -0.79400
O72         O  0.25087291  0.55521962  0.38789016    -0.83600
O73         O  0.21216997  0.51264959  0.44416648    -0.78400
O74         O  0.15339837  0.47019933  0.33162292    -0.80200
O75         O  0.10789399  0.51326312  0.42458293    -0.83000
C76         C  0.21098129  0.48119649  0.44107240     0.97800
C77         C  0.25537167  0.53542270  0.36755240     1.05200
O78         O  0.16775772  0.50975491  0.39028901    -1.11900
O79         O  0.14956628  0.57278912  0.37795422    -0.74400
O80         O  0.20982288  0.59345414  0.39012277    -0.77900
O81         O  0.19561280  0.45946910  0.41771381    -0.78600
C82         C  0.18375887  0.59946853  0.38167593     0.96700
O83         O  0.16624572  0.54689397  0.44573456    -0.76500
O84         O  0.13613085  0.51445583  0.33266722    -0.81700
C85         C  0.08682937  0.42626419  0.38490792     0.99300
C86         C  0.14430485  0.49245420  0.31809476     1.05200
O87         O  0.11715852  0.42554930  0.39048157    -0.77300
C88         C  0.12978499  0.53038419  0.44736822     1.03500
Fe89       Fe  0.32655355  0.81088421  0.42642497     1.65800
Fe90       Fe  0.38538766  0.88519640  0.38266444     1.73200
Fe91       Fe  0.28746574  0.84760853  0.38037263     1.54400
O92         O  0.25480481  0.78725580  0.37766847    -0.81100
O93         O  0.37680854  0.92856075  0.39634812    -0.79400
O94         O  0.29273030  0.76752146  0.39731234    -0.83600
O95         O  0.27932917  0.80635095  0.44752099    -0.78400
O96         O  0.30607217  0.85012444  0.33522826    -0.80200
O97         O  0.40996577  0.88585755  0.42593073    -0.83000
C98         C  0.25933218  0.82179392  0.44612250     0.97800
C99         C  0.26171237  0.76086201  0.38481347     1.05200
O100        O  0.33267940  0.84768115  0.39579121    -1.11900
O101        O  0.39622725  0.84275762  0.36809754    -0.74400
O102        O  0.37330654  0.80781769  0.41078487    -0.77900
O103        O  0.26308189  0.84433008  0.42411106    -0.78600
C104        C  0.39287127  0.81620840  0.38592073     0.96700
O105        O  0.35883288  0.85463395  0.45570607    -0.76500
O106        O  0.36966694  0.88908756  0.33757258    -0.81700
C107        C  0.34885503  0.93381056  0.39179747     0.99300
C108        C  0.33876630  0.87047900  0.32231484     1.05200
O109        O  0.31572242  0.90739257  0.38284513    -0.77300
C110        C  0.39466444  0.87244044  0.45231322     1.03500
Fe111      Fe  0.46618318  0.66440584  0.42533985     1.65800
Fe112      Fe  0.49658296  0.62289208  0.37342745     1.73200
Fe113      Fe  0.54370419  0.72133619  0.38047742     1.54400
O114        O  0.50438430  0.73972178  0.37214264    -0.81100
O115        O  0.55427277  0.64325812  0.37719215    -0.79400
O116        O  0.46471557  0.71177732  0.41162959    -0.83600
O117        O  0.50908151  0.69756969  0.45651714    -0.78400
O118        O  0.53944164  0.70831553  0.33352097    -0.80200
O119        O  0.48875079  0.59319673  0.41472956    -0.83000
C120        C  0.53849484  0.73077172  0.45241347     0.97800
C121        C  0.47601249  0.73449793  0.38876071     1.05200
O122        O  0.50256249  0.66946895  0.39322924    -1.11900
O123        O  0.43801494  0.59790705  0.36695111    -0.74400
O124        O  0.42071989  0.63196157  0.39581083    -0.77900
O125        O  0.55303311  0.74332975  0.42562003    -0.78600
C126        C  0.41364738  0.60684848  0.37522512     0.96700
O127        O  0.46131764  0.61625158  0.44517251    -0.76500
O128        O  0.50301601  0.64510946  0.32938554    -0.81700
C129        C  0.58496773  0.67447514  0.38337151     0.99300
C130        C  0.52102966  0.67826860  0.31729616     1.05200
O131        O  0.58608373  0.70629079  0.38715286    -0.77300
C132        C  0.47206868  0.59272471  0.43969461     1.03500
Fe133      Fe  0.61173079  0.50672592  0.38094898     1.65800
Fe134      Fe  0.65801233  0.46867221  0.41780524     1.73200
Fe135      Fe  0.71141489  0.55597465  0.38253905     1.54400
O136        O  0.69378476  0.55145284  0.33627961    -0.81100
O137        O  0.69970716  0.50424817  0.44870480    -0.79400
O138        O  0.62980841  0.51536511  0.33506945    -0.83600
O139        O  0.63142228  0.56362004  0.38611982    -0.78400
O140        O  0.73554840  0.52293364  0.36947880    -0.80200
O141        O  0.61719727  0.46655043  0.44702859    -0.83000
C142        C  0.66247617  0.59483267  0.39020328     0.97800
C143        C  0.66229339  0.53309675  0.32130843     1.05200
O144        O  0.66065279  0.51100906  0.39414249    -1.11900
O145        O  0.61799839  0.42670918  0.38918272    -0.74400
O146        O  0.58163559  0.44851417  0.37196255    -0.77900
O147        O  0.69476517  0.59665996  0.39244609    -0.78600
C148        C  0.58915566  0.42214749  0.37440083     0.96700
O149        O  0.59069869  0.49787606  0.42636728    -0.76500
O150        O  0.69845147  0.46659169  0.39190090    -0.81700
C151        C  0.72885123  0.53801653  0.44919297     0.99300
C152        C  0.72685043  0.48859168  0.37501767     1.05200
O153        O  0.73559868  0.56259778  0.42764558    -0.77300
C154        C  0.59574330  0.48065816  0.44889443     1.03500
Fe155      Fe  0.52521022  0.33296876  0.57792113     1.65800
Fe156      Fe  0.50903451  0.38664224  0.62837926     1.73200
Fe157      Fe  0.44562538  0.28910064  0.62390205     1.54400
O158        O  0.43080865  0.26231171  0.57991751    -0.81100
O159        O  0.50132321  0.36617351  0.67267010    -0.79400
O160        O  0.48014362  0.30119916  0.54994985    -0.83600
O161        O  0.52186823  0.28534183  0.59865104    -0.78400
O162        O  0.41271598  0.31307128  0.61421276    -0.80200
O163        O  0.56731391  0.40329243  0.63297303    -0.83000
C164        C  0.50504803  0.26440455  0.62223244     0.97800
C165        C  0.44659646  0.27283928  0.55331424     1.05200
O166        O  0.49320082  0.33637728  0.61002991    -1.11900
O167        O  0.51941505  0.41477794  0.58618723    -0.74400
O168        O  0.53321895  0.38062255  0.55418602    -0.77900
O169        O  0.47636360  0.26302194  0.63545095    -0.78600
C170        C  0.53023333  0.40948989  0.56010302     0.96700
O171        O  0.57489398  0.36513293  0.60139651    -0.76500
O172        O  0.45258804  0.37488222  0.62652396    -0.81700
C173        C  0.47479633  0.33614500  0.68544896     0.99300
C174        C  0.41949359  0.34674674  0.61936364     1.05200
O175        O  0.45101450  0.30691242  0.66999894    -0.77300
C176        C  0.58815252  0.39133179  0.62137737     1.03500
Fe177      Fe  0.51178560  0.14278344  0.38096077     1.65800
Fe178      Fe  0.53555775  0.22629152  0.41660143     1.73200
Fe179      Fe  0.45078306  0.17881370  0.37812422     1.54400
O180        O  0.45965749  0.16752560  0.33322253    -0.81100
O181        O  0.49355557  0.22770300  0.44235315    -0.79400
O182        O  0.50155082  0.14716939  0.33432585    -0.83600
O183        O  0.45675537  0.09903272  0.38746889    -0.78400
O184        O  0.47790444  0.23704838  0.36595206    -0.80200
O185        O  0.53695189  0.19056906  0.44923599    -0.83000
C186        C  0.42350453  0.09384941  0.39026507     0.97800
C187        C  0.48006761  0.15633082  0.31978755     1.05200
O188        O  0.49934038  0.18248178  0.39179954    -1.11900
O189        O  0.58459978  0.23312282  0.39676464    -0.74400
O190        O  0.57031205  0.17895972  0.37345825    -0.77900
O191        O  0.41648845  0.12070464  0.38809171    -0.78600
C192        C  0.59445660  0.21201679  0.38329210     0.96700
O193        O  0.52243148  0.13519212  0.42710164    -0.76500
O194        O  0.53712677  0.26492336  0.38517680    -0.81700
C195        C  0.45735663  0.21180271  0.44288718     0.99300
C196        C  0.51165468  0.26594617  0.36903068     1.05200
O197        O  0.43628612  0.18937161  0.42173848    -0.77300
C198        C  0.53211887  0.15712614  0.45058959     1.03500
Fe199      Fe  0.89217248  0.50251995  0.62930575     1.65800
Fe200      Fe  0.81201608  0.46242701  0.58730546     1.73200
Fe201      Fe  0.83593378  0.54284812  0.62564097     1.54400
O202        O  0.84015232  0.53323158  0.67248191    -0.81100
O203        O  0.79404056  0.49509743  0.56438310    -0.79400
O204        O  0.88483923  0.51670065  0.67431942    -0.83600
O205        O  0.92791792  0.55814459  0.61773966    -0.78400
O206        O  0.77567836  0.50246142  0.62849707    -0.80200
O207        O  0.85507839  0.47942551  0.55550383    -0.83000
C208        C  0.92630504  0.58800263  0.62141379     0.97800
C209        C  0.86231097  0.52550983  0.68761469     1.05200
O210        O  0.84720610  0.50311622  0.61431181    -1.11900
O211        O  0.82147967  0.42047020  0.60468116    -0.74400
O212        O  0.86108202  0.44646052  0.64400608    -0.77900
O213        O  0.89473395  0.58736982  0.62539844    -0.78600
C214        C  0.83621906  0.41754558  0.62949723     0.96700
O215        O  0.90453270  0.48933438  0.58481610    -0.76500
O216        O  0.76902868  0.44590490  0.61892635    -0.81700
C217        C  0.80794183  0.53051482  0.55922510     0.99300
C218        C  0.75490608  0.46569143  0.62788127     1.05200
O219        O  0.83041560  0.55534898  0.57883061    -0.77300
C220        C  0.88921962  0.48653513  0.55830626     1.03500
Fe221      Fe  0.81309835  0.36410660  0.42552785     1.65800
Fe222      Fe  0.88825410  0.40882990  0.37530697     1.73200
Fe223      Fe  0.84270776  0.31030087  0.38753246     1.54400
O224        O  0.83672361  0.29325050  0.43404420    -0.81100
O225        O  0.87241000  0.38315881  0.33226501    -0.79400
O226        O  0.81631305  0.32846151  0.45671614    -0.83600
O227        O  0.76565486  0.31881106  0.40628722    -0.78400
O228        O  0.90113328  0.33135539  0.39083207    -0.80200
O229        O  0.85262219  0.43075694  0.36592720    -0.83000
C230        C  0.75793740  0.28883422  0.39160257     0.97800
C231        C  0.82438958  0.30234096  0.45766488     1.05200
O232        O  0.84830867  0.36106684  0.39625803    -1.11900
O233        O  0.90756514  0.43965662  0.41689979    -0.74400
O234        O  0.85671164  0.40998835  0.44852316    -0.77900
O235        O  0.78337318  0.28168406  0.38271199    -0.78600
C236        C  0.89101021  0.43633711  0.44286412     0.96700
O237        O  0.80338934  0.39878136  0.39797132    -0.76500
O238        O  0.92977736  0.39390344  0.38004160    -0.81700
C239        C  0.85686012  0.34895973  0.32242651     0.99300
C240        C  0.93095612  0.36387752  0.38594622     1.05200
O241        O  0.84647863  0.32020817  0.34018534    -0.77300
C242        C  0.81992618  0.42251913  0.37615637     1.03500
Fe243      Fe  0.67466259  0.22576884  0.59928474     1.65800
Fe244      Fe  0.61743184  0.13696714  0.62929623     1.73200
Fe245      Fe  0.71536156  0.17571077  0.62519908     1.54400
O246        O  0.73643531  0.19108447  0.57984479    -0.81100
O247        O  0.63605752  0.14082848  0.67472414    -0.79400
O248        O  0.71796612  0.23289652  0.57038982    -0.83600
O249        O  0.71392361  0.26008455  0.63208584    -0.78400
O250        O  0.69043612  0.11760720  0.61429027    -0.80200
O251        O  0.59373545  0.16956994  0.64133691    -0.83000
C252        C  0.74437916  0.26128514  0.64059791     0.97800
C253        C  0.73891439  0.21905963  0.56439062     1.05200
O254        O  0.66893608  0.17902514  0.61750771    -1.11900
O255        O  0.59766616  0.13397434  0.58406497    -0.74400
O256        O  0.63501497  0.19421628  0.56565481    -0.77900
O257        O  0.74911166  0.23295114  0.63770269    -0.78600
C258        C  0.60682274  0.15991066  0.56328097     0.96700
O259        O  0.63282647  0.22839235  0.62427955    -0.76500
O260        O  0.62788577  0.09350675  0.62007969    -0.81700
C261        C  0.66875796  0.15215221  0.68706193     0.99300
C262        C  0.65624328  0.08933995  0.61546654     1.05200
O263        O  0.69939195  0.16287309  0.67142839    -0.77300
C264        C  0.60166736  0.20357235  0.63683767     1.03500
Fe265      Fe  0.65986092  0.47652733  0.07546322     1.65800
Fe266      Fe  0.61025547  0.49911088  0.12621852     1.73200
Fe267      Fe  0.70986850  0.55459667  0.12209536     1.54400
O268        O  0.73676819  0.52262775  0.12679168    -0.81100
O269        O  0.62482836  0.55528752  0.12103745    -0.79400
O270        O  0.70343929  0.47315347  0.09535797    -0.83600
O271        O  0.69853256  0.52105999  0.04722133    -0.78400
O272        O  0.69460064  0.54350559  0.16877164    -0.80200
O273        O  0.58113600  0.48668682  0.08370571    -0.83000
C274        C  0.72645826  0.55501905  0.05112576     0.97800
C275        C  0.73119894  0.49232150  0.11352994     1.05200
O276        O  0.66007056  0.51035995  0.10786582    -1.11900
O277        O  0.59052528  0.44138616  0.13449413    -0.74400
O278        O  0.62218888  0.42732252  0.10004501    -0.77900
O279        O  0.73346918  0.57159950  0.07732532    -0.78600
C280        C  0.59834492  0.41784225  0.12229598     0.96700
O281        O  0.61637332  0.47558147  0.05068014    -0.76500
O282        O  0.63100896  0.50966976  0.17126793    -0.81700
C283        C  0.65563318  0.58780386  0.11971402     0.99300
C284        C  0.66356457  0.52661281  0.18440807     1.05200
O285        O  0.68904941  0.59216277  0.11934317    -0.77300
C286        C  0.58747327  0.47837247  0.05680573     1.03500
Fe287      Fe  0.53600069  0.34936159  0.92195615     1.65800
Fe288      Fe  0.50836221  0.39563207  0.87520588     1.73200
Fe289      Fe  0.45348185  0.29803334  0.88245629     1.54400
O290        O  0.48605344  0.27493526  0.86743366    -0.81100
O291        O  0.45020579  0.37658343  0.87565374    -0.79400
O292        O  0.53044428  0.29948350  0.90430582    -0.83600
O293        O  0.49282863  0.32091486  0.95315187    -0.78400
O294        O  0.45270015  0.31507319  0.83701331    -0.80200
O295        O  0.51155617  0.41913277  0.91897419    -0.83000
C296        C  0.46715602  0.28614382  0.95114229     0.97800
C297        C  0.51296199  0.27553036  0.88281376     1.05200
O298        O  0.49959317  0.34767240  0.89267209    -1.11900
O299        O  0.56858528  0.42116301  0.87196513    -0.74400
O300        O  0.58192045  0.37949516  0.89289608    -0.77900
O301        O  0.44892544  0.27236114  0.92607049    -0.78600
C302        C  0.59208752  0.40991301  0.87759960     0.96700
O303        O  0.54555884  0.39858165  0.94367504    -0.76500
O304        O  0.50383017  0.37402631  0.83117894    -0.81700
C305        C  0.41967470  0.34849396  0.88713628     0.99300
C306        C  0.47664267  0.34289502  0.82000072     1.05200
O307        O  0.41765479  0.31780667  0.89662374    -0.77300
C308        C  0.52903550  0.41784863  0.94290404     1.03500
Fe309      Fe  0.65847170  0.19960871  0.93302395     1.65800
Fe310      Fe  0.61391797  0.13519505  0.87590657     1.73200
Fe311      Fe  0.71256332  0.18086301  0.88399421     1.54400
O312        O  0.73379020  0.23939392  0.87827880    -0.81100
O313        O  0.62878416  0.09436259  0.88015193    -0.79400
O314        O  0.70079753  0.25015010  0.91419328    -0.83600
O315        O  0.69785190  0.19565607  0.96032952    -0.78400
O316        O  0.70106516  0.17403889  0.83749290    -0.80200
O317        O  0.57998991  0.11458016  0.91656607    -0.83000
C318        C  0.72870630  0.19634534  0.95453763     0.97800
C319        C  0.72603160  0.26185612  0.89281615     1.05200
O320        O  0.66171347  0.17172673  0.89757600    -1.11900
O321        O  0.59543761  0.17346181  0.86915736    -0.74400
O322        O  0.61791256  0.20849703  0.91165102    -0.77900
O323        O  0.73698998  0.19067602  0.92758676    -0.78600
C324        C  0.59672278  0.19808707  0.88774590     0.96700
O325        O  0.61626237  0.15140124  0.95511026    -0.76500
O326        O  0.63850012  0.14967659  0.83207244    -0.81700
C327        C  0.65915729  0.09322967  0.88447896     0.99300
C328        C  0.67179618  0.16234492  0.82081982     1.05200
O329        O  0.69260007  0.12267234  0.88815957    -0.77300
C330        C  0.58524542  0.12334084  0.94518798     1.03500
Fe331      Fe  0.80407769  0.48786545  0.93095464     1.65800
Fe332      Fe  0.87925613  0.50685212  0.88621317     1.73200
Fe333      Fe  0.83926770  0.56333265  0.88121646     1.54400
O334        O  0.77915443  0.52965053  0.87536219    -0.81100
O335        O  0.92365570  0.56190407  0.89311724    -0.79400
O336        O  0.76077407  0.47392461  0.89934729    -0.83600
O337        O  0.79640197  0.53013411  0.94932480    -0.78400
O338        O  0.84349462  0.54756112  0.83656226    -0.80200
O339        O  0.88678742  0.49314871  0.93179304    -0.83000
C340        C  0.81003849  0.56575091  0.94606168     0.97800
C341        C  0.75425963  0.49434752  0.88078755     1.05200
O342        O  0.84160402  0.52030975  0.89968906    -1.11900
O343        O  0.83758408  0.45053240  0.87683821    -0.74400
O344        O  0.80379873  0.43879200  0.91970558    -0.77900
O345        O  0.83264263  0.58466011  0.92376492    -0.78600
C346        C  0.81181887  0.42726839  0.89537136     0.96700
O347        O  0.84660326  0.49972171  0.96273840    -0.76500
O348        O  0.87679041  0.51837630  0.83946108    -0.81700
C349        C  0.92785998  0.59478139  0.88895384     0.99300
C350        C  0.86020753  0.53208109  0.82368486     1.05200
O351        O  0.89976061  0.59998428  0.88381812    -0.77300
C352        C  0.87448760  0.49413130  0.95890297     1.03500
Fe353      Fe  0.53729038  0.20508648  0.08644390     1.65800
Fe354      Fe  0.50431775  0.12360471  0.12610504     1.73200
Fe355      Fe  0.45458631  0.17105456  0.12332221     1.54400
O356        O  0.49161878  0.23140192  0.12986023    -0.81100
O357        O  0.44799601  0.08398752  0.11770039    -0.79400
O358        O  0.55112109  0.24410626  0.12104459    -0.83600
O359        O  0.50247403  0.22357669  0.07102989    -0.78400
O360        O  0.46202061  0.16381783  0.16981435    -0.80200
O361        O  0.51640628  0.11518494  0.08019845    -0.83000
C362        C  0.46959465  0.20430191  0.06001172     0.97800
C363        C  0.52823501  0.25456275  0.13064236     1.05200
O364        O  0.49854000  0.16592075  0.11266113    -1.11900
O365        O  0.56237807  0.15649488  0.13704773    -0.74400
O366        O  0.58105202  0.19729440  0.09812853    -0.77900
O367        O  0.44368185  0.17731758  0.07628840    -0.78600
C368        C  0.58846324  0.18097897  0.11942520     0.96700
O369        O  0.52251352  0.16445823  0.05176589    -0.76500
O370        O  0.49231794  0.13069132  0.17172168    -0.81700
C371        C  0.41634982  0.08284111  0.11649095     0.99300
C372        C  0.47705207  0.14778338  0.18487060     1.05200
O373        O  0.41366962  0.11252664  0.11902674    -0.77300
C374        C  0.51973498  0.13166374  0.05393866     1.03500
Fe375      Fe  0.80713567  0.34516657  0.08035560     1.65800
Fe376      Fe  0.87802216  0.39495049  0.13208637     1.73200
Fe377      Fe  0.83536788  0.29699081  0.12661432     1.54400
O378        O  0.77673942  0.27102714  0.13558201    -0.81100
O379        O  0.91937629  0.37922081  0.13431025    -0.79400
O380        O  0.76019859  0.29688731  0.09772171    -0.83600
O381        O  0.81908341  0.31259524  0.05089975    -0.78400
O382        O  0.84562225  0.31299991  0.17270033    -0.80200
O383        O  0.90139596  0.42258071  0.08976016    -0.83000
C384        C  0.81682237  0.28078635  0.05625349     0.97800
C385        C  0.75155295  0.27173860  0.11863568     1.05200
O386        O  0.84033987  0.34582335  0.11289572    -1.11900
O387        O  0.84286052  0.41863788  0.13158973    -0.74400
O388        O  0.79064872  0.37705963  0.10573137    -0.77900
O389        O  0.82204655  0.27155981  0.08311278    -0.78600
C390        C  0.81011492  0.40828142  0.12025525     0.96700
O391        O  0.85003219  0.39388503  0.05920641    -0.76500
O392        O  0.85753120  0.37273299  0.17602276    -0.81700
C393        C  0.92234159  0.35088761  0.12579372     0.99300
C394        C  0.84974718  0.34110311  0.18848798     1.05200
O395        O  0.89348684  0.31867522  0.11825625    -0.77300
C396        C  0.88411720  0.42050563  0.06462075     1.03500
Fe397      Fe  0.34170169  0.54686574  0.91508945     1.65800
Fe398      Fe  0.39110760  0.51525765  0.87594166     1.73200
Fe399      Fe  0.29240126  0.46422348  0.87826443     1.54400
O400        O  0.27389498  0.45303400  0.92553105    -0.81100
O401        O  0.37167820  0.49989072  0.83094916    -0.79400
O402        O  0.28873067  0.51195024  0.93398003    -0.83600
O403        O  0.31447198  0.55962293  0.88158056    -0.78400
O404        O  0.31043597  0.42476203  0.88280803    -0.80200
O405        O  0.41580105  0.57271523  0.86280998    -0.83000
C406        C  0.28150373  0.53536124  0.87103030     0.97800
C407        C  0.27320370  0.47785601  0.94301866     1.05200
O408        O  0.34198206  0.50870193  0.88897441    -1.11900
O409        O  0.41384109  0.53013114  0.92074460    -0.74400
O410        O  0.36892903  0.53290828  0.94867837    -0.77900
O411        O  0.26894760  0.49930180  0.87138114    -0.78600
C412        C  0.39973556  0.53183236  0.94678648     0.96700
O413        O  0.39321650  0.59118621  0.90106945    -0.76500
O414        O  0.37422138  0.45984505  0.88690146    -0.81700
C415        C  0.33981563  0.48551462  0.81669810     0.99300
C416        C  0.34299330  0.42796116  0.88652491     1.05200
O417        O  0.30784788  0.47221623  0.83120137    -0.77300
C418        C  0.41731974  0.59874027  0.87977786     1.03500
Fe419      Fe  0.11205285  0.51105888  0.12413291     1.65800
Fe420      Fe  0.19135335  0.54711492  0.07897229     1.73200
Fe421      Fe  0.16777597  0.46931539  0.12405341     1.54400
O422        O  0.15287498  0.47362413  0.16934282    -0.81100
O423        O  0.19199102  0.50746565  0.04965462    -0.79400
O424        O  0.12758020  0.51105662  0.16949633    -0.83600
O425        O  0.07804202  0.45303423  0.12478889    -0.78400
O426        O  0.22465829  0.51035490  0.13550620    -0.80200
O427        O  0.14750823  0.54364124  0.05353235    -0.83000
C428        C  0.07981770  0.42335752  0.12009835     0.97800
C429        C  0.14073140  0.49276554  0.18347529     1.05200
O430        O  0.15674783  0.50860290  0.10876314    -1.11900
O431        O  0.19647622  0.59085376  0.10618143    -0.74400
O432        O  0.13939580  0.57012916  0.12751060    -0.77900
O433        O  0.11133927  0.42428817  0.11535555    -0.78600
C434        C  0.17401431  0.59600151  0.12308074     0.96700
O435        O  0.09228583  0.51066843  0.07953523    -0.76500
O436        O  0.23928148  0.55538424  0.10014954    -0.81700
C437        C  0.19521716  0.47845277  0.05467455     0.99300
C438        C  0.24878399  0.54186276  0.12236641     1.05200
O439        O  0.18667865  0.46095176  0.08073899    -0.77300
C440        C  0.11123664  0.52634562  0.05490112     1.03500
Fe441      Fe  0.19847246  0.65943616  0.92620597     1.65800
Fe442      Fe  0.12365017  0.61700743  0.87597741     1.73200
Fe443      Fe  0.17773193  0.71552697  0.88231450     1.54400
O444        O  0.19017014  0.73696322  0.92777726    -0.81100
O445        O  0.13875329  0.63874358  0.83161723    -0.79400
O446        O  0.18996524  0.69211774  0.95795277    -0.83600
O447        O  0.24851284  0.70675533  0.91193955    -0.78400
O448        O  0.11973941  0.70015707  0.88837483    -0.80200
O449        O  0.15697140  0.59261762  0.86861441    -0.83000
C450        C  0.25968162  0.72987973  0.88937503     0.97800
C451        C  0.19297552  0.72458594  0.95429919     1.05200
O452        O  0.16605929  0.66395230  0.89504948    -1.11900
O453        O  0.10220131  0.58775577  0.91787211    -0.74400
O454        O  0.15463608  0.61098564  0.94659509    -0.77900
O455        O  0.23609577  0.73500624  0.87381106    -0.78600
C456        C  0.11948749  0.58721082  0.94207706     0.96700
O457        O  0.21032873  0.62775190  0.89595994    -0.76500
O458        O  0.08634298  0.63674967  0.88013399    -0.81700
C459        C  0.15547839  0.67183713  0.81936320     0.99300
C460        C  0.08801544  0.66831539  0.88511339     1.05200
O461        O  0.16916900  0.70212629  0.83546510    -0.77300
C462        C  0.19104548  0.60230955  0.87586477     1.03500
Fe463      Fe  0.50319394  0.88330679  0.88266791     1.65800
Fe464      Fe  0.48647900  0.80869235  0.92519722     1.73200
Fe465      Fe  0.56363141  0.84826036  0.87953616     1.54400
O466        O  0.54498215  0.84675827  0.83504993    -0.81100
O467        O  0.53070772  0.80627444  0.94561769    -0.79400
O468        O  0.52401091  0.88754588  0.83743611    -0.83600
O469        O  0.55539864  0.92703906  0.89737533    -0.78400
O470        O  0.53663738  0.78807763  0.87813156    -0.80200
O471        O  0.49732264  0.85105124  0.95539810    -0.83000
C472        C  0.58847593  0.93391751  0.88937956     0.97800
C473        C  0.53438486  0.86773103  0.82192584     1.05200
O474        O  0.51796072  0.84667438  0.89533428    -1.11900
O475        O  0.43603739  0.80425728  0.90951297    -0.74400
O476        O  0.44974373  0.84060910  0.86750874    -0.77900
O477        O  0.59493603  0.90829639  0.87928080    -0.78600
C478        C  0.42569423  0.81338413  0.88478257     0.96700
O479        O  0.47858532  0.88281113  0.92604387    -0.76500
O480        O  0.47692504  0.76659110  0.89510976    -0.81700
C481        C  0.56696830  0.82517132  0.94491548     0.99300
C482        C  0.50204794  0.76109721  0.88296553     1.05200
O483        O  0.58570658  0.84893474  0.92332874    -0.77300
C484        C  0.48048117  0.86953185  0.95233421     1.03500
Fe485      Fe  0.32535237  0.79557911  0.09471135     1.65800
Fe486      Fe  0.38176195  0.88291434  0.12569636     1.73200
Fe487      Fe  0.28341839  0.83694558  0.13050148     1.54400
O488        O  0.26212545  0.82749558  0.08507822    -0.81100
O489        O  0.36639966  0.88637277  0.17137740    -0.79400
O490        O  0.27405124  0.78147469  0.07378731    -0.83600
O491        O  0.29668517  0.75959077  0.13101459    -0.78400
O492        O  0.30546984  0.89588449  0.12443692    -0.80200
O493        O  0.40492728  0.85085778  0.14189710    -0.83000
C494        C  0.26425097  0.75237141  0.14108136     0.97800
C495        C  0.25786910  0.80026011  0.06779643     1.05200
O496        O  0.33051494  0.83889019  0.11727643    -1.11900
O497        O  0.40202986  0.88178479  0.08116755    -0.74400
O498        O  0.35365666  0.83073938  0.05802176    -0.77900
O499        O  0.25406981  0.77725958  0.13926784    -0.78600
C500        C  0.38744857  0.85976707  0.05783429     0.96700
O501        O  0.37606876  0.80136144  0.11022180    -0.76500
O502        O  0.36657661  0.92124563  0.11008918    -0.81700
C503        C  0.33575077  0.86765760  0.18759294     0.99300
C504        C  0.33734599  0.92406151  0.11501971     1.05200
O505        O  0.30268379  0.84612183  0.17577681    -0.77300
C506        C  0.40302361  0.82226138  0.12851787     1.03500
Fe507      Fe  0.47487318  0.67961391  0.07063959     1.65800
Fe508      Fe  0.49144693  0.62837057  0.12441839     1.73200
Fe509      Fe  0.55055254  0.72675939  0.12021788     1.54400
O510        O  0.57062086  0.75026997  0.07629300    -0.81100
O511        O  0.50276740  0.64904838  0.16910631    -0.79400
O512        O  0.52146726  0.71838267  0.04423370    -0.83600
O513        O  0.47054976  0.72353831  0.09049995    -0.78400
O514        O  0.58603146  0.70349098  0.11923313    -0.80200
O515        O  0.43554376  0.61386361  0.13239001    -0.83000
C516        C  0.48898251  0.74929875  0.11057891     0.97800
C517        C  0.55573346  0.74475214  0.04957783     1.05200
O518        O  0.50592620  0.67834451  0.10496275    -1.11900
O519        O  0.47584287  0.59749743  0.08308447    -0.74400
O520        O  0.47507567  0.63585806  0.04659298    -0.77900
O521        O  0.51916153  0.75403246  0.12354756    -0.78600
C522        C  0.47135894  0.60426256  0.05515977     0.96700
O523        O  0.42381502  0.64126574  0.09274313    -0.76500
O524        O  0.54656458  0.63946652  0.11913844    -0.81700
C525        C  0.51969563  0.68154450  0.18196258     0.99300
C526        C  0.57989260  0.66939977  0.11896378     1.05200
O527        O  0.53741505  0.71242649  0.16647192    -0.77300
C528        C  0.41293789  0.62020300  0.11692294     1.03500
C529        C  0.43451873  0.81393502  0.13096417    -0.04700
C530        C  0.46032478  0.82465810  0.10580244    -0.01900
C531        C  0.47762746  0.80320292  0.09868055     0.03100
C532        C  0.47390608  0.77448912  0.11931188    -0.04700
C533        C  0.45342776  0.76835581  0.14743548    -0.01800
C534        C  0.43283662  0.78729225  0.15280195     0.03100
C535        C  0.47023118  0.85873952  0.08789176     0.37800
C536        C  0.45165328  0.74088832  0.16986115     0.37800
C537        C  0.41033092  0.77989486  0.18079664     0.36200
C538        C  0.49688548  0.80917746  0.06908391     0.36200
N539        N  0.39295273  0.77464908  0.20344436    -0.38600
N540        N  0.51103631  0.81387576  0.04490833    -0.38600
N541        N  0.45047868  0.71904806  0.18775028    -0.38100
N542        N  0.47996208  0.88685007  0.07425899    -0.38100
C543        C  0.58589366  0.81579465  0.96986995    -0.04700
C544        C  0.59004191  0.83203796  0.99946283    -0.01900
C545        C  0.58758046  0.81085612  0.02635994     0.03100
C546        C  0.57724750  0.77207591  0.02369445    -0.04700
C547        C  0.57896731  0.75821482  0.99417601    -0.01800
C548        C  0.58507175  0.78084376  0.96743466     0.03100
C549        C  0.59236363  0.86854588  0.00252771     0.37800
C550        C  0.57181075  0.71971608  0.99104624     0.37800
C551        C  0.58583718  0.76620681  0.93703078     0.36200
C552        C  0.59162498  0.82765840  0.05670980     0.36200
N553        N  0.58647312  0.75456680  0.91276288    -0.38600
N554        N  0.59493807  0.84124274  0.08085807    -0.38600
N555        N  0.56596601  0.68894810  0.98810880    -0.38100
N556        N  0.59372468  0.89739537  0.00578804    -0.38100
C557        C  0.45718267  0.86886986  0.97900029    -0.04700
C558        C  0.45924918  0.90234197  0.99038238    -0.01900
C559        C  0.43671878  0.90006586  0.01634646     0.03100
C560        C  0.41169518  0.86415313  0.03054371    -0.04700
C561        C  0.41103260  0.83101143  0.01970158    -0.01800
C562        C  0.43277654  0.83317370  0.99376830     0.03100
C563        C  0.48545427  0.93910629  0.97608342     0.37800
C564        C  0.38984544  0.79459506  0.03627110     0.37800
C565        C  0.42928574  0.79791932  0.98222809     0.36200
C566        C  0.44009205  0.93466284  0.02882328     0.36200
N567        N  0.42631928  0.76968482  0.97343373    -0.38600
N568        N  0.44330415  0.96244633  0.03895681    -0.38600
N569        N  0.37338898  0.76545993  0.04920217    -0.38100
N570        N  0.50647128  0.96843728  0.96466466    -0.38100
C571        C  0.23483344  0.78929397  0.03878307    -0.04700
C572        C  0.19829930  0.75552031  0.03824797    -0.01900
C573        C  0.18300169  0.73553015  0.01024548     0.03100
C574        C  0.20338081  0.74991206  0.98208667    -0.04700
C575        C  0.23773103  0.78624062  0.98207557    -0.01800
C576        C  0.25369769  0.80539235  0.01033154     0.03100
C577        C  0.17669894  0.74032341  0.06666184     0.37800
C578        C  0.25870876  0.80243690  0.95340531     0.37800
C579        C  0.29133864  0.83997390  0.01035056     0.36200
C580        C  0.14695514  0.69919160  0.01077040     0.36200
N581        N  0.32152682  0.86734175  0.01019469    -0.38600
N582        N  0.11831340  0.67010118  0.01166939    -0.38600
N583        N  0.27564685  0.81568065  0.93065183    -0.38100
N584        N  0.15794308  0.72750521  0.08862693    -0.38100
C585        C  0.30201537  0.75040284  0.88187136    -0.04700
C586        C  0.32309870  0.73195272  0.88814844    -0.01900
C587        C  0.36313280  0.75156393  0.88405870     0.03100
C588        C  0.38382505  0.79119953  0.87752972    -0.04700
C589        C  0.36330003  0.80929821  0.86917754    -0.01800
C590        C  0.32249279  0.78866156  0.87043008     0.03100
C591        C  0.30469589  0.69302951  0.90031780     0.37800
C592        C  0.38403292  0.84962881  0.86084723     0.37800
C593        C  0.30212426  0.80781166  0.86178095     0.36200
C594        C  0.38299145  0.73047144  0.88677989     0.36200
N595        N  0.28605661  0.82329912  0.85472903    -0.38600
N596        N  0.39765717  0.71257223  0.88872734    -0.38600
N597        N  0.40052267  0.88180844  0.85419823    -0.38100
N598        N  0.29139703  0.66247888  0.91064735    -0.38100
C599        C  0.09965250  0.55733399  0.96631250    -0.04700
C600        C  0.07786706  0.56182458  0.98966650    -0.01900
C601        C  0.07593564  0.54682764  0.01973604     0.03100
C602        C  0.09232886  0.52414504  0.02512651    -0.04700
C603        C  0.10429599  0.51140073  0.99959724    -0.01800
C604        C  0.11134376  0.53049715  0.97102647     0.03100
C605        C  0.05991072  0.58389098  0.98338512     0.37800
C606        C  0.11453450  0.48242966  0.00398414     0.37800
C607        C  0.13590518  0.52668666  0.94879737     0.36200
C608        C  0.06069208  0.55765664  0.04548201     0.36200
N609        N  0.15690697  0.52370446  0.93260224    -0.38600
N610        N  0.04861035  0.56634622  0.06612732    -0.38600
N611        N  0.12245164  0.45910801  0.00708739    -0.38100
N612        N  0.04459476  0.60064726  0.97835858    -0.38100
C613        C  0.19046084  0.63330468  0.13925011    -0.04700
C614        C  0.17400699  0.65648508  0.13819886    -0.01900
C615        C  0.19654180  0.69557768  0.14660807     0.03100
C616        C  0.23644596  0.71204215  0.15133337    -0.04700
C617        C  0.24972713  0.68698185  0.15890180    -0.01800
C618        C  0.22552438  0.64732027  0.15478809     0.03100
C619        C  0.13479973  0.64066994  0.12807186     0.37800
C620        C  0.28844964  0.70152108  0.16977157     0.37800
C621        C  0.23607571  0.62073492  0.16691832     0.36200
C622        C  0.17870495  0.71795963  0.15204866     0.36200
N623        N  0.24414141  0.59948417  0.17712155    -0.38600
N624        N  0.16431238  0.73558268  0.15733351    -0.38600
N625        N  0.31932265  0.71240397  0.17819485    -0.38100
N626        N  0.10340835  0.62799544  0.12013177    -0.38100
C627        C  0.29050761  0.56426852  0.13101993    -0.04700
C628        C  0.31007346  0.54588088  0.14151760    -0.01900
C629        C  0.35072752  0.56529127  0.13995032     0.03100
C630        C  0.37196184  0.60267764  0.12694164    -0.04700
C631        C  0.35288347  0.62285798  0.12129693    -0.01800
C632        C  0.31269118  0.60398123  0.12317380     0.03100
C633        C  0.28873546  0.50623705  0.15171932     0.37800
C634        C  0.37429212  0.66323913  0.11276067     0.37800
C635        C  0.29486650  0.62568447  0.11412338     0.36200
C636        C  0.37022704  0.54598593  0.15078345     0.36200
N637        N  0.28217386  0.64392462  0.10589302    -0.38600
N638        N  0.38566518  0.53060654  0.15970087    -0.38600
N639        N  0.39023584  0.69528134  0.10563812    -0.38100
N640        N  0.27182910  0.47456507  0.15992996    -0.38100
C641        C  0.21603987  0.46990878  0.03024932    -0.04700
C642        C  0.25503217  0.49755964  0.02542527    -0.01900
C643        C  0.27371555  0.49882894  0.99767912     0.03100
C644        C  0.25491036  0.47019714  0.97468977    -0.04700
C645        C  0.21720593  0.43939547  0.98122974    -0.01800
C646        C  0.19779409  0.43940837  0.00894118     0.03100
C647        C  0.27668008  0.52650818  0.04843329     0.37800
C648        C  0.19728311  0.40969659  0.95845730     0.37800
C649        C  0.15905807  0.40842997  0.01530530     0.36200
C650        C  0.31157163  0.53263858  0.99252262     0.36200
N651        N  0.12825073  0.38345346  0.02049956    -0.38600
N652        N  0.34075590  0.56097039  0.99007236    -0.38600
N653        N  0.18128060  0.38597230  0.94015995    -0.38100
N654        N  0.29701929  0.55082743  0.06491058    -0.38100
C655        C  0.45724172  0.57317995  0.03171743    -0.04700
C656        C  0.47968085  0.57664852  0.00556778    -0.01900
C657        C  0.46161937  0.55802036  0.97762935     0.03100
C658        C  0.42097934  0.53599316  0.97629450    -0.04700
C659        C  0.40050945  0.52421051  0.00459664    -0.01800
C660        C  0.41826725  0.54369615  0.03215981     0.03100
C661        C  0.52107278  0.59838846  0.00788235     0.37800
C662        C  0.36158966  0.49160600  0.00531254     0.37800
C663        C  0.39594758  0.53450677  0.06044350     0.36200
C664        C  0.48468511  0.56350585  0.95027571     0.36200
N665        N  0.37769023  0.52644536  0.08286382    -0.38600
N666        N  0.50315148  0.56767854  0.92848382    -0.38600
N667        N  0.33084466  0.46505251  0.00608791    -0.38100
N668        N  0.55414050  0.61458943  0.01000760    -0.38100
C669        C  0.44845915  0.63957612  0.87724232    -0.04700
C670        C  0.46509817  0.65897283  0.90522490    -0.01900
C671        C  0.48379995  0.69891795  0.90651954     0.03100
C672        C  0.49064800  0.72062598  0.87922224    -0.04700
C673        C  0.47823684  0.70180362  0.85048236    -0.01800
C674        C  0.45566995  0.66115782  0.84961991     0.03100
C675        C  0.45906204  0.63815131  0.93408485     0.37800
C676        C  0.48588054  0.72426866  0.82238002     0.37800
C677        C  0.43612449  0.64219035  0.82136088     0.36200
C678        C  0.49078395  0.71674321  0.93684089     0.36200
N679        N  0.41994376  0.62732829  0.79888786    -0.38600
N680        N  0.49418138  0.72895227  0.96154647    -0.38600
N681        N  0.49229506  0.74228957  0.79994212    -0.38100
N682        N  0.45421552  0.62348297  0.95800755    -0.38100
C683        C  0.20950211  0.58269292  0.86148692    -0.04700
C684        C  0.19195257  0.54264044  0.86324485    -0.01900
C685        C  0.21500422  0.52599204  0.86431644     0.03100
C686        C  0.25563201  0.54951418  0.86100768    -0.04700
C687        C  0.27129625  0.58832383  0.85164422    -0.01800
C688        C  0.24789130  0.60452101  0.85143589     0.03100
C689        C  0.15046811  0.51883048  0.86510266     0.37800
C690        C  0.31164082  0.61232879  0.84360423     0.37800
C691        C  0.26261998  0.64327296  0.84008690     0.36200
C692        C  0.19673225  0.48554812  0.87192684     0.36200
N693        N  0.27400136  0.67388188  0.83045123    -0.38600
N694        N  0.18192323  0.45334838  0.87834357    -0.38600
N695        N  0.34385977  0.63181330  0.83748082    -0.38100
N696        N  0.11735500  0.49985041  0.86645547    -0.38100
C697        C  0.96166113  0.35660689  0.12479151    -0.04700
C698        C  0.97941428  0.35794100  0.09618115    -0.01900
C699        C  0.01974192  0.37429819  0.09452853     0.03100
C700        C  0.04201164  0.38728790  0.12163103    -0.04700
C701        C  0.02303673  0.37855425  0.15057640    -0.01800
C702        C  0.98355875  0.36582667  0.15217273     0.03100
C703        C  0.95688367  0.34581330  0.06813022     0.37800
C704        C  0.04520590  0.38659607  0.17875269     0.37800
C705        C  0.96661964  0.36588199  0.18175392     0.36200
C706        C  0.03884660  0.38119850  0.06478077     0.36200
N707        N  0.95398415  0.36722732  0.20543945    -0.38600
N708        N  0.05410660  0.38672012  0.04101385    -0.38600
N709        N  0.06269360  0.39242439  0.20126498    -0.38100
N710        N  0.93891380  0.33579922  0.04571618    -0.38100
C711        C  0.38193380  0.04412327  0.11239132    -0.04700
C712        C  0.37798328  0.02473461  0.08439239    -0.01900
C713        C  0.35883771  0.98431043  0.08405778     0.03100
C714        C  0.34266964  0.96305041  0.11159616    -0.04700
C715        C  0.34030181  0.98226177  0.13799300    -0.01800
C716        C  0.36068085  0.02285970  0.13861507     0.03100
C717        C  0.39594277  0.04665555  0.05641855     0.37800
C718        C  0.31951799  0.96047484  0.16527172     0.37800
C719        C  0.36289633  0.04273746  0.16704305     0.36200
C720        C  0.35710827  0.96467796  0.05565744     0.36200
N721        N  0.36484350  0.05872720  0.18970253    -0.38600
N722        N  0.35570767  0.94934572  0.03276894    -0.38600
N723        N  0.30262705  0.94304351  0.18695570    -0.38100
N724        N  0.41002415  0.06417436  0.03405384    -0.38100
C725        C  0.62941867  0.19229196  0.12208477    -0.04700
C726        C  0.65016572  0.19909898  0.09414567    -0.01900
C727        C  0.68964038  0.22553219  0.09320659     0.03100
C728        C  0.71028295  0.24119038  0.12097569    -0.04700
C729        C  0.69039567  0.22936797  0.14968266    -0.01800
C730        C  0.64974659  0.20561800  0.15017079     0.03100
C731        C  0.63054045  0.18173914  0.06537281     0.37800
C732        C  0.71102274  0.24482268  0.17833518     0.37800
C733        C  0.62883249  0.19730781  0.17919323     0.36200
C734        C  0.70754058  0.23936755  0.06295403     0.36200
N735        N  0.61209558  0.19062287  0.20234875    -0.38600
N736        N  0.72056188  0.25106994  0.03867311    -0.38600
N737        N  0.72746321  0.25728663  0.20123200    -0.38100
N738        N  0.61621670  0.16912791  0.04181198    -0.38100
C739        C  0.96844648  0.62740224  0.88810066    -0.04700
C740        C  0.98815192  0.63824951  0.85939495    -0.01900
C741        C  0.02870610  0.65727519  0.85841297     0.03100
C742        C  0.05007290  0.66595265  0.88606447    -0.04700
C743        C  0.03069721  0.66019912  0.91457975    -0.01800
C744        C  0.98998563  0.64003448  0.91569024     0.03100
C745        C  0.96668735  0.62602094  0.83073053     0.37800
C746        C  0.05264089  0.67345605  0.94283993     0.37800
C747        C  0.97014181  0.62933927  0.94526919     0.36200
C748        C  0.04823599  0.66516490  0.82875394     0.36200
N749        N  0.95417620  0.62038083  0.96884480    -0.38600
N750        N  0.06313949  0.67107325  0.80480164    -0.38600
N751        N  0.07011181  0.68467298  0.96541900    -0.38100
N752        N  0.95002495  0.61624889  0.80766966    -0.38100
C753        C  0.89102743  0.48548916  0.98698489    -0.04700
C754        C  0.90703101  0.46154279  0.98489286    -0.01900
C755        C  0.91182010  0.44468432  0.01197089     0.03100
C756        C  0.90127670  0.45168757  0.04108391    -0.04700
C757        C  0.89331995  0.48132422  0.04377528    -0.01800
C758        C  0.88729810  0.49756548  0.01697841     0.03100
C759        C  0.91679889  0.45222013  0.95519595     0.37800
C760        C  0.88903735  0.49339417  0.07435066     0.37800
C761        C  0.87558323  0.52537509  0.02083719     0.36200
C762        C  0.92785416  0.42019536  0.01024143     0.36200
N763        N  0.86575394  0.54711904  0.02467780    -0.38600
N764        N  0.94184250  0.40166001  0.00901809    -0.38600
N765        N  0.88609159  0.50344354  0.09869451    -0.38100
N766        N  0.92498067  0.44475693  0.93165553    -0.38100
C767        C  0.65389285  0.05476305  0.88462895    -0.04700
C768        C  0.64107943  0.03277933  0.85734472    -0.01900
C769        C  0.62575582  0.99304952  0.85871343     0.03100
C770        C  0.61900265  0.97458876  0.88770263    -0.04700
C771        C  0.63343925  0.99671626  0.91483491    -0.01800
C772        C  0.65239445  0.03703007  0.91305256     0.03100
C773        C  0.63847805  0.04979127  0.82854182     0.37800
C774        C  0.62635689  0.97830060  0.94481913     0.37800
C775        C  0.66651847  0.06001019  0.94085035     0.36200
C776        C  0.61284791  0.97081975  0.83044800     0.36200
N777        N  0.67799865  0.07868340  0.96282545    -0.38600
N778        N  0.60297200  0.95377539  0.80758750    -0.38600
N779        N  0.62103599  0.96477259  0.96926351    -0.38100
N780        N  0.63455231  0.06204100  0.80555771    -0.38100
C781        C  0.55340213  0.10394698  0.96834431    -0.04700
C782        C  0.55981051  0.09023379  0.99626856    -0.01900
C783        C  0.54421699  0.09414834  0.02444393     0.03100
C784        C  0.52345382  0.11354303  0.02471260    -0.04700
C785        C  0.51024806  0.11910786  0.99590101    -0.01800
C786        C  0.52396748  0.11249971  0.96777717     0.03100
C787        C  0.58264441  0.07227428  0.99573215     0.37800
C788        C  0.48349450  0.13258518  0.99500713     0.37800
C789        C  0.50949907  0.11643421  0.93822713     0.36200
C790        C  0.55240794  0.08099356  0.05301516     0.36200
N791        N  0.49769198  0.11911332  0.91459344    -0.38600
N792        N  0.55890713  0.07036457  0.07578689    -0.38600
N793        N  0.46214431  0.14335876  0.99417308    -0.38100
N794        N  0.60004770  0.05702216  0.99532759    -0.38100
C795        C  0.75780833  0.20888223  0.97973809    -0.04700
C796        C  0.74688904  0.19421983  0.01014204    -0.01900
C797        C  0.77023869  0.21493672  0.03556161     0.03100
C798        C  0.80304165  0.25191121  0.03077888    -0.04700
C799        C  0.81686985  0.26328318  0.00027920    -0.01800
C800        C  0.79489909  0.24127166  0.97486050     0.03100
C801        C  0.71084526  0.15868770  0.01539251     0.37800
C802        C  0.85354864  0.29791017  0.99492500     0.37800
C803        C  0.80979846  0.25346498  0.94374138     0.36200
C804        C  0.75829183  0.19964328  0.06666703     0.36200
N805        N  0.82236061  0.26309355  0.91905666    -0.38600
N806        N  0.74856897  0.18722717  0.09140893    -0.38600
N807        N  0.88293610  0.32520208  0.98998119    -0.38100
N808        N  0.68210109  0.13036813  0.01978371    -0.38100
C809        C  0.74671047  0.30393320  0.88588232    -0.04700
C810        C  0.72838180  0.32446721  0.89360718    -0.01900
C811        C  0.74990120  0.36423919  0.89747084     0.03100
C812        C  0.78935655  0.38526776  0.88931816    -0.04700
C813        C  0.80659020  0.36542359  0.87703465    -0.01800
C814        C  0.78544819  0.32479951  0.87562868     0.03100
C815        C  0.68696242  0.30507771  0.89774195     0.37800
C816        C  0.84680581  0.38630191  0.86814083     0.37800
C817        C  0.80398062  0.30494335  0.86399003     0.36200
C818        C  0.73079933  0.38268126  0.91120859     0.36200
N819        N  0.81894967  0.28943920  0.85428813    -0.38600
N820        N  0.71486082  0.39624353  0.92271434    -0.38600
N821        N  0.87891048  0.40281251  0.86106781    -0.38100
N822        N  0.65415432  0.29078108  0.90125174    -0.38100
C823        C  0.34668763  0.39368815  0.88753401    -0.04700
C824        C  0.35356859  0.38095064  0.91587579    -0.01900
C825        C  0.37278573  0.36018464  0.91607271     0.03100
C826        C  0.38567442  0.35298736  0.88794012    -0.04700
C827        C  0.37305742  0.36022066  0.85971456    -0.01800
C828        C  0.35401308  0.38093941  0.85945765     0.03100
C829        C  0.34297857  0.39129076  0.94471114     0.37800
C830        C  0.38154985  0.34801585  0.83078554     0.37800
C831        C  0.34558822  0.39257468  0.83015999     0.36200
C832        C  0.38074301  0.34783200  0.94510387     0.36200
N833        N  0.33915347  0.40199779  0.80675304    -0.38600
N834        N  0.38620397  0.33740670  0.96841951    -0.38600
N835        N  0.38786742  0.33791704  0.80769627    -0.38100
N836        N  0.33428440  0.39935629  0.96771988    -0.38100
C837        C  0.46432616  0.26108980  0.97734043    -0.04700
C838        C  0.49851863  0.26288825  0.98662782    -0.01900
C839        C  0.49784179  0.23919005  0.01038009     0.03100
C840        C  0.46433846  0.21755547  0.02899209    -0.04700
C841        C  0.42978906  0.21514802  0.01957154    -0.01800
C842        C  0.42960925  0.23597386  0.99305428     0.03100
C843        C  0.53535747  0.28947317  0.97213138     0.37800
C844        C  0.39505411  0.19293825  0.03768981     0.37800
C845        C  0.39441132  0.23350174  0.98312507     0.36200
C846        C  0.53309109  0.23903752  0.01622325     0.36200
N847        N  0.36635642  0.23159383  0.97507640    -0.38600
N848        N  0.56162565  0.24017805  0.02116939    -0.38600
N849        N  0.36722648  0.17529503  0.05215329    -0.38100
N850        N  0.56535477  0.31064070  0.96176285    -0.38100
C851        C  0.63350879  0.43322776  0.86762228    -0.04700
C852        C  0.65384026  0.47394123  0.86656418    -0.01900
C853        C  0.69446754  0.49489359  0.86432763     0.03100
C854        C  0.71489379  0.47565652  0.86679040    -0.04700
C855        C  0.69489183  0.43608637  0.86048371    -0.01800
C856        C  0.65437113  0.41471743  0.86130714     0.03100
C857        C  0.63380224  0.49463899  0.86955215     0.37800
C858        C  0.71613789  0.41837963  0.85025762     0.37800
C859        C  0.63445813  0.37374727  0.85582228     0.36200
C860        C  0.71481174  0.53513891  0.85613218     0.36200
N861        N  0.61872055  0.34106264  0.85151080    -0.38600
N862        N  0.73100136  0.56691013  0.84821476    -0.38600
N863        N  0.73287180  0.40442946  0.84109295    -0.38100
N864        N  0.61803626  0.51140661  0.87208521    -0.38100
C865        C  0.52378432  0.24617803  0.87850908    -0.04700
C866        C  0.54360568  0.24480158  0.85220687    -0.01900
C867        C  0.56397392  0.22506636  0.85394323     0.03100
C868        C  0.57055948  0.21347297  0.88326911    -0.04700
C869        C  0.54972175  0.21479542  0.90907152    -0.01800
C870        C  0.52244622  0.22555380  0.90497487     0.03100
C871        C  0.54306244  0.26339672  0.82371657     0.37800
C872        C  0.55690877  0.20668102  0.94013832     0.37800
C873        C  0.48974878  0.21086771  0.92564170     0.36200
C874        C  0.57653985  0.21599712  0.82565643     0.36200
N875        N  0.46223559  0.19679400  0.94077120    -0.38600
N876        N  0.58412760  0.20748237  0.80237653    -0.38600
N877        N  0.56406858  0.20144792  0.96489178    -0.38100
N878        N  0.54292010  0.27830498  0.80087747    -0.38100
C879        C  0.61240884  0.66276527  0.12040483    -0.04700
C880        C  0.61952694  0.65016195  0.14870633    -0.01900
C881        C  0.63883970  0.62969211  0.14887231     0.03100
C882        C  0.65087778  0.62155284  0.12072413    -0.04700
C883        C  0.64898753  0.63920015  0.09312352    -0.01800
C884        C  0.62971363  0.65992201  0.09298176     0.03100
C885        C  0.60430861  0.65558612  0.17741543     0.37800
C886        C  0.66504184  0.63426231  0.06477331     0.37800
C887        C  0.62571216  0.67644566  0.06450043     0.36200
C888        C  0.64389837  0.61459735  0.17781821     0.36200
N889        N  0.62271116  0.69008141  0.04193067    -0.38600
N890        N  0.64790099  0.60272085  0.20098773    -0.38600
N891        N  0.67829509  0.63061759  0.04222935    -0.38100
N892        N  0.59220969  0.65961093  0.20045310    -0.38100
C893        C  0.75267333  0.57412761  0.02374953    -0.04700
C894        C  0.79288795  0.58959175  0.02576333    -0.01900
C895        C  0.81480919  0.59446939  0.99852638     0.03100
C896        C  0.79683850  0.58364462  0.96947197    -0.04700
C897        C  0.75924622  0.57670068  0.96716897    -0.01800
C898        C  0.73691937  0.57102648  0.99403649     0.03100
C899        C  0.81140795  0.59832308  0.05565753     0.37800
C900        C  0.74401636  0.57702392  0.93714850     0.37800
C901        C  0.69740873  0.56113629  0.99092426     0.36200
C902        C  0.85595670  0.61140871  0.99989978     0.36200
N903        N  0.66593667  0.55327663  0.98790538    -0.38600
N904        N  0.88900884  0.62585862  0.00067926    -0.38600
N905        N  0.73138274  0.57902953  0.91380202    -0.38100
N906        N  0.82650078  0.60568678  0.07945277    -0.38100
C907        C  0.52941566  0.43698641  0.97238600    -0.04700
C908        C  0.51444233  0.41376472  0.99910211    -0.01900
C909        C  0.53069769  0.42829062  0.02824336     0.03100
C910        C  0.55891061  0.46732205  0.03147800    -0.04700
C911        C  0.56601094  0.49225916  0.00612235    -0.01800
C912        C  0.55237566  0.47700631  0.97618640     0.03100
C913        C  0.48283966  0.37456251  0.99664796     0.37800
C914        C  0.58677136  0.53317525  0.01107525     0.37800
C915        C  0.56245908  0.50203179  0.94947388     0.36200
C916        C  0.52094446  0.40188769  0.05393087     0.36200
N917        N  0.57002905  0.52202331  0.92814358    -0.38600
N918        N  0.51255868  0.37949978  0.07352131    -0.38600
N919        N  0.60244005  0.56590741  0.01506666    -0.38100
N920        N  0.45686566  0.34351719  0.99590384    -0.38100
C921        C  0.57990699  0.37744571  0.13418006    -0.04700
C922        C  0.60274295  0.36095927  0.13862875    -0.01900
C923        C  0.58568763  0.32086312  0.14156295     0.03100
C924        C  0.54520934  0.29632839  0.13912961    -0.04700
C925        C  0.52238611  0.31358742  0.14074499    -0.01800
C926        C  0.53984359  0.35407368  0.13884849     0.03100
C927        C  0.64410723  0.38548718  0.14088124     0.37800
C928        C  0.48098439  0.29020157  0.14373417     0.37800
C929        C  0.51640505  0.37135578  0.14111682     0.36200
C930        C  0.61039722  0.30536085  0.14678024     0.36200
N931        N  0.49748563  0.38491632  0.14305686    -0.38600
N932        N  0.63034275  0.29328694  0.15083391    -0.38600
N933        N  0.44793642  0.27166140  0.14628239    -0.38100
N934        N  0.67706056  0.40476357  0.14307544    -0.38100
C935        C  0.75870348  0.47859856  0.11671690    -0.04700
C936        C  0.76974344  0.46768208  0.08940667    -0.01900
C937        C  0.78582307  0.44438972  0.09099860     0.03100
C938        C  0.79530150  0.43512527  0.11997363    -0.04700
C939        C  0.79050916  0.45178645  0.14708312    -0.01800
C940        C  0.77043868  0.47187291  0.14566557     0.03100
C941        C  0.76461794  0.48058226  0.05930985     0.37800
C942        C  0.80630529  0.44873618  0.17618480     0.37800
C943        C  0.76025357  0.48375887  0.17390961     0.36200
C944        C  0.79256172  0.43013097  0.06232279     0.36200
N945        N  0.75186810  0.49298924  0.19648676    -0.38600
N946        N  0.79723808  0.41878298  0.03919875    -0.38600
N947        N  0.81983326  0.44773197  0.19944176    -0.38100
N948        N  0.76088061  0.49100845  0.03532631    -0.38100
C949        C  0.67197007  0.15588023  0.72140746    -0.04700
C950        C  0.65894109  0.17786703  0.73666975    -0.01900
C951        C  0.66363546  0.18364833  0.76881872     0.03100
C952        C  0.67645678  0.16361954  0.78664112    -0.04700
C953        C  0.69309480  0.14485806  0.77152849    -0.01800
C954        C  0.69171891  0.14183107  0.73884184     0.03100
C955        C  0.64252940  0.19646836  0.71934650     0.37800
C956        C  0.71253628  0.12968643  0.78940971     0.37800
C957        C  0.71084152  0.12458336  0.72340899     0.36200
C958        C  0.66205685  0.21503304  0.78294059     0.36200
N959        N  0.72649838  0.11113463  0.71122052    -0.38600
N960        N  0.66351192  0.24150641  0.79418399    -0.38600
N961        N  0.72816223  0.11767076  0.80363050    -0.38100
N962        N  0.62913538  0.21136738  0.70599211    -0.38100
C963        C  0.85061085  0.34235466  0.28850789    -0.04700
C964        C  0.86413522  0.32133092  0.27254632    -0.01900
C965        C  0.86210166  0.31890353  0.23990107     0.03100
C966        C  0.84608931  0.33720071  0.22297829    -0.04700
C967        C  0.82701467  0.35254731  0.23941208    -0.01800
C968        C  0.83036033  0.35636632  0.27191493     0.03100
C969        C  0.88089664  0.30278908  0.28961958     0.37800
C970        C  0.80049318  0.36027199  0.22320286     0.37800
C971        C  0.81151753  0.37326774  0.28827840     0.36200
C972        C  0.87631340  0.29727649  0.22405811     0.36200
N973        N  0.79622561  0.38672656  0.30098755    -0.38600
N974        N  0.88739667  0.27966254  0.21160861    -0.38600
N975        N  0.77818265  0.36478248  0.21033504    -0.38100
N976        N  0.89400726  0.28783878  0.30336022    -0.38100
C977        C  0.76861166  0.23930043  0.53955925    -0.04700
C978        C  0.78972383  0.28003127  0.53890854    -0.01900
C979        C  0.81585245  0.30006395  0.51482542     0.03100
C980        C  0.81528613  0.28063757  0.48762187    -0.04700
C981        C  0.79551152  0.23999103  0.48836132    -0.01800
C982        C  0.77392709  0.21952644  0.51503522     0.03100
C983        C  0.78134534  0.30216504  0.56041723     0.37800
C984        C  0.79364378  0.21900333  0.46073498     0.37800
C985        C  0.75392834  0.17809651  0.51557798     0.36200
C986        C  0.84025367  0.34150978  0.51676628     0.36200
N987        N  0.73824743  0.14498731  0.51580429    -0.38600
N988        N  0.85907013  0.37450535  0.51860248    -0.38600
N989        N  0.79166492  0.20218474  0.43857651    -0.38100
N990        N  0.77372994  0.32034992  0.57607117    -0.38100
C991        C  0.86206556  0.52717762  0.72241680    -0.04700
C992        C  0.86119801  0.49781870  0.74079653    -0.01900
C993        C  0.85964025  0.49889846  0.77356457     0.03100
C994        C  0.86046004  0.53018059  0.78876554    -0.04700
C995        C  0.86157763  0.55969353  0.77025210    -0.01800
C996        C  0.86256269  0.55825510  0.73750609     0.03100
C997        C  0.86146140  0.46590486  0.72618371     0.37800
C998        C  0.86250950  0.59234338  0.78465262     0.37800
C999        C  0.86656808  0.59026367  0.71939310     0.36200
C1000       C  0.85512531  0.46649752  0.79138965     0.36200
N1001       N  0.87029746  0.61606010  0.70502944    -0.38600
N1002       N  0.85122555  0.44039481  0.80539429    -0.38600
N1003       N  0.86302843  0.61827161  0.79608891    -0.38100
N1004       N  0.86212950  0.44047073  0.71499347    -0.38100
C1005       C  0.90983762  0.48989800  0.52862954    -0.04700
C1006       C  0.90329021  0.50728324  0.50288494    -0.01900
C1007       C  0.90262753  0.49367661  0.47276167     0.03100
C1008       C  0.91072169  0.46426152  0.46827253    -0.04700
C1009       C  0.92735911  0.45501571  0.49290385    -0.01800
C1010       C  0.92718781  0.46810902  0.52323634     0.03100
C1011       C  0.89586936  0.53813771  0.50771578     0.37800
C1012       C  0.94327961  0.43104232  0.48720622     0.37800
C1013       C  0.94461239  0.45927714  0.54855891     0.36200
C1014       C  0.89120637  0.50817618  0.44687232     0.36200
N1015       N  0.95974384  0.45331963  0.56855854    -0.38600
N1016       N  0.88226895  0.52044795  0.42655139    -0.38600
N1017       N  0.95679855  0.41248316  0.48288271    -0.38100
N1018       N  0.89026076  0.56297687  0.51151311    -0.38100
C1019       C  0.82202498  0.37876156  0.64224552    -0.04700
C1020       C  0.83434879  0.35505502  0.62948152    -0.01900
C1021       C  0.81226427  0.31502395  0.63421112     0.03100
C1022       C  0.77698256  0.29898722  0.65048139    -0.04700
C1023       C  0.76950392  0.32323800  0.66848336    -0.01800
C1024       C  0.79149495  0.36322684  0.66386950     0.03100
C1025       C  0.86748540  0.37119870  0.60912118     0.37800
C1026       C  0.73889124  0.30671977  0.69131785     0.37800
C1027       C  0.78058010  0.38791869  0.67913996     0.36200
C1028       C  0.82340990  0.29047746  0.61893757     0.36200
N1029       N  0.77178028  0.40766756  0.69111601    -0.38600
N1030       N  0.83233789  0.27109828  0.60648647    -0.38600
N1031       N  0.71516625  0.29354729  0.71017660    -0.38100
N1032       N  0.89373094  0.38328842  0.59266562    -0.38100
C1033       C  0.47720011  0.14966449  0.21950185    -0.04700
C1034       C  0.46992940  0.11757617  0.23779607    -0.01900
C1035       C  0.47071752  0.11975310  0.27048105     0.03100
C1036       C  0.47853440  0.15385129  0.28535673    -0.04700
C1037       C  0.48411794  0.18533934  0.26721346    -0.01800
C1038       C  0.48451024  0.18366345  0.23457540     0.03100
C1039       C  0.46047455  0.08180720  0.22312864     0.37800
C1040       C  0.48935654  0.21969105  0.28195141     0.37800
C1041       C  0.49417524  0.21789186  0.21681414     0.36200
C1042       C  0.46114234  0.08604254  0.28891772     0.36200
N1043       N  0.50211461  0.24558373  0.20321791    -0.38600
N1044       N  0.45324424  0.05924904  0.30380814    -0.38600
N1045       N  0.49281805  0.24703433  0.29324126    -0.38100
N1046       N  0.45307530  0.05334144  0.21132312    -0.38100
C1047       C  0.54083534  0.14585974  0.48114142    -0.04700
C1048       C  0.56187868  0.12688787  0.48340651    -0.01900
C1049       C  0.58081000  0.12839308  0.51143697     0.03100
C1050       C  0.58174478  0.15165018  0.53598270    -0.04700
C1051       C  0.56067091  0.17025483  0.53343660    -0.01800
C1052       C  0.53687276  0.16342013  0.50792448     0.03100
C1053       C  0.56681217  0.10857781  0.45655758     0.37800
C1054       C  0.56738090  0.20079930  0.55443453     0.37800
C1055       C  0.51012459  0.17698826  0.50869631     0.36200
C1056       C  0.60254568  0.10937480  0.51390074     0.36200
N1057       N  0.48897456  0.18796260  0.50977073    -0.38600
N1058       N  0.61997126  0.09425827  0.51595077    -0.38600
N1059       N  0.57366572  0.22678130  0.56955616    -0.38100
N1060       N  0.57110708  0.09409768  0.43516716    -0.38100
C1061       C  0.63601213  0.22511646  0.38360006    -0.04700
C1062       C  0.65832189  0.23363047  0.35626900    -0.01900
C1063       C  0.69890206  0.25202827  0.35827827     0.03100
C1064       C  0.71667535  0.26033101  0.38759373    -0.04700
C1065       C  0.69388382  0.24716059  0.41457579    -0.01800
C1066       C  0.65409114  0.23115619  0.41274174     0.03100
C1067       C  0.63995142  0.22597411  0.32632983     0.37800
C1068       C  0.71171719  0.25195249  0.44469968     0.37800
C1069       C  0.63266237  0.22370730  0.44144986     0.36200
C1070       C  0.72247109  0.26490819  0.33050007     0.36200
N1071       N  0.61758522  0.21959435  0.46511996    -0.38600
N1072       N  0.74150933  0.27552885  0.30844354    -0.38600
N1073       N  0.72544968  0.25559192  0.46883010    -0.38100
N1074       N  0.62533806  0.21981009  0.30236172    -0.38100
C1075       C  0.47168148  0.33601689  0.71989835    -0.04700
C1076       C  0.47529293  0.36846816  0.73526495    -0.01900
C1077       C  0.47560083  0.36998432  0.76789684     0.03100
C1078       C  0.47238290  0.33925892  0.78567700    -0.04700
C1079       C  0.46577250  0.30561841  0.77040209    -0.01800
C1080       C  0.46632488  0.30440282  0.73768414     0.03100
C1081       C  0.47797269  0.40021860  0.71765087     0.37800
C1082       C  0.45866012  0.27221324  0.78809905     0.37800
C1083       C  0.46357368  0.27135533  0.72242173     0.36200
C1084       C  0.47727902  0.40252971  0.78326517     0.36200
N1085       N  0.46166298  0.24518869  0.71020735    -0.38600
N1086       N  0.47820109  0.42810013  0.79572202    -0.38600
N1087       N  0.45226563  0.24507926  0.80193066    -0.38100
N1088       N  0.48006911  0.42568250  0.70381055    -0.38100
C1089       C  0.42828671  0.25197960  0.52395635    -0.04700
C1090       C  0.41334221  0.21213460  0.52097071    -0.01900
C1091       C  0.41811204  0.19734344  0.49253715     0.03100
C1092       C  0.44043423  0.22298446  0.46841324    -0.04700
C1093       C  0.45086173  0.26171151  0.47064729    -0.01800
C1094       C  0.44008681  0.27444963  0.49669307     0.03100
C1095       C  0.39391789  0.18681570  0.54695623     0.37800
C1096       C  0.47769906  0.29011523  0.44887191     0.37800
C1097       C  0.44584083  0.31267235  0.49663698     0.36200
C1098       C  0.40331094  0.15669007  0.48913685     0.36200
N1099       N  0.45031959  0.34309832  0.49555289    -0.38600
N1100       N  0.39143874  0.12422427  0.48623453    -0.38600
N1101       N  0.50089128  0.31397501  0.43322463    -0.38100
N1102       N  0.37763716  0.16632018  0.56747094    -0.38100
C1103       C  0.62996402  0.40834237  0.63006794    -0.04700
C1104       C  0.64883845  0.38761853  0.62408976    -0.01900
C1105       C  0.68877949  0.40479750  0.62822347     0.03100
C1106       C  0.71203973  0.44467340  0.63459452    -0.04700
C1107       C  0.69301892  0.46416310  0.64383262    -0.01800
C1108       C  0.65233410  0.44586483  0.64232354     0.03100
C1109       C  0.62820907  0.34876143  0.61202159     0.37800
C1110       C  0.71497422  0.50306232  0.65529612     0.37800
C1111       C  0.63409967  0.46679968  0.65203406     0.36200
C1112       C  0.70519535  0.38046904  0.62544973     0.36200
N1113       N  0.61965433  0.48359878  0.65984577    -0.38600
N1114       N  0.71752020  0.36049748  0.62317636    -0.38600
N1115       N  0.73233689  0.53404990  0.66459917    -0.38100
N1116       N  0.61279113  0.31832066  0.60152908    -0.38100
C1117       C  0.52223561  0.24303304  0.63547118    -0.04700
C1118       C  0.55591601  0.26330000  0.65315196    -0.01900
C1119       C  0.58162096  0.24978858  0.65543603     0.03100
C1120       C  0.57170939  0.21375724  0.64288887    -0.04700
C1121       C  0.53448438  0.19050587  0.63014320    -0.01800
C1122       C  0.51061151  0.20585310  0.62529264     0.03100
C1123       C  0.56515243  0.29937340  0.66727177     0.37800
C1124       C  0.52280198  0.15297234  0.61772207     0.37800
C1125       C  0.47574967  0.18471648  0.60744901     0.36200
C1126       C  0.61922721  0.27441948  0.66862483     0.36200
N1127       N  0.44813991  0.16766612  0.59297729    -0.38600
N1128       N  0.64931645  0.29484972  0.67876506    -0.38600
N1129       N  0.51357420  0.12325619  0.60741578    -0.38100
N1130       N  0.57220342  0.32796519  0.67865397    -0.38100
C1131       C  0.66339312  0.53131752  0.28619478    -0.04700
C1132       C  0.69414017  0.56073429  0.26855089    -0.01900
C1133       C  0.69515081  0.55850444  0.23575453     0.03100
C1134       C  0.66500717  0.52719339  0.21952428    -0.04700
C1135       C  0.63539037  0.49686142  0.23722801    -0.01800
C1136       C  0.63428608  0.49903642  0.26996522     0.03100
C1137       C  0.72462235  0.59439665  0.28377802     0.37800
C1138       C  0.60678697  0.46189695  0.22206761     0.37800
C1139       C  0.60312104  0.46700667  0.28664493     0.36200
C1140       C  0.72765952  0.58890266  0.21895339     0.36200
N1141       N  0.57784956  0.44133929  0.29949486    -0.38600
N1142       N  0.75394287  0.61296594  0.20571170    -0.38600
N1143       N  0.58406958  0.43379510  0.21029639    -0.38100
N1144       N  0.74895937  0.62134908  0.29573798    -0.38100
C1145       C  0.75755468  0.54501668  0.47445416    -0.04700
C1146       C  0.76686473  0.57132423  0.49908659    -0.01900
C1147       C  0.78610967  0.56914995  0.52614331     0.03100
C1148       C  0.79615318  0.54056487  0.52890223    -0.04700
C1149       C  0.79005306  0.51705548  0.50275200    -0.01800
C1150       C  0.77136997  0.51946032  0.47614134     0.03100
C1151       C  0.75480804  0.59910981  0.49748688     0.37800
C1152       C  0.80113047  0.48827544  0.50310705     0.37800
C1153       C  0.76493962  0.49341664  0.45091886     0.36200
C1154       C  0.79349872  0.59486508  0.55174893     0.36200
N1155       N  0.76064420  0.47135178  0.43220991    -0.38600
N1156       N  0.79958233  0.61549050  0.57220568    -0.38600
N1157       N  0.80863257  0.46444462  0.50243622    -0.38100
N1158       N  0.74489456  0.62113359  0.49647316    -0.38100
C1159       C  0.57793569  0.47693833  0.47979896    -0.04700
C1160       C  0.60129082  0.48378444  0.50593567    -0.01900
C1161       C  0.58513712  0.46413142  0.53374196     0.03100
C1162       C  0.54513646  0.44015415  0.53640938    -0.04700
C1163       C  0.52151362  0.44131188  0.51311037    -0.01800
C1164       C  0.53785719  0.45883956  0.48416339     0.03100
C1165       C  0.64230485  0.50980293  0.50389907     0.37800
C1166       C  0.48113216  0.42553028  0.51929073     0.37800
C1167       C  0.51366537  0.45730138  0.45904091     0.36200
C1168       C  0.61007371  0.46679005  0.55878122     0.36200
N1169       N  0.49421108  0.45648277  0.43919044    -0.38600
N1170       N  0.63081454  0.46949834  0.57820843    -0.38600
N1171       N  0.44906310  0.41413745  0.52442721    -0.38100
N1172       N  0.67505850  0.53085317  0.50324178    -0.38100
C1173       C  0.56309903  0.38391038  0.36048169    -0.04700
C1174       C  0.57866542  0.36607627  0.34275034    -0.01900
C1175       C  0.55891223  0.32578041  0.34102502     0.03100
C1176       C  0.52253032  0.30378806  0.35521052    -0.04700
C1177       C  0.50274609  0.32238267  0.36403034    -0.01800
C1178       C  0.52358324  0.36262848  0.36805574     0.03100
C1179       C  0.61433990  0.38927993  0.32592848     0.37800
C1180       C  0.46208683  0.30009619  0.37121515     0.37800
C1181       C  0.50513782  0.38144640  0.38185743     0.36200
C1182       C  0.57614848  0.30668643  0.32558552     0.36200
N1183       N  0.49033131  0.39648508  0.39276632    -0.38600
N1184       N  0.58949586  0.29116152  0.31306379    -0.38600
N1185       N  0.42955548  0.28247861  0.37675151    -0.38100
N1186       N  0.64248659  0.40785389  0.31205513    -0.38100
C1187       C  0.75110061  0.47269541  0.36374154    -0.04700
C1188       C  0.73472270  0.43215602  0.36257297    -0.01900
C1189       C  0.75828626  0.41638566  0.36058851     0.03100
C1190       C  0.79840749  0.43999855  0.36304946    -0.04700
C1191       C  0.81511857  0.47995816  0.35949398    -0.01800
C1192       C  0.79157306  0.49641702  0.35965952     0.03100
C1193       C  0.69406756  0.40545056  0.36790271     0.37800
C1194       C  0.85646338  0.50414205  0.35705872     0.37800
C1195       C  0.80968253  0.53776497  0.35887952     0.36200
C1196       C  0.74077525  0.37507157  0.35808583     0.36200
N1197       N  0.82445551  0.57083656  0.35833115    -0.38600
N1198       N  0.72620954  0.34216055  0.35596156    -0.38600
N1199       N  0.88948509  0.52329435  0.35481435    -0.38100
N1200       N  0.66241162  0.38318605  0.37389023    -0.38100
C1201       C  0.52011969  0.68162327  0.28271570    -0.04700
C1202       C  0.55343728  0.70789384  0.26578880    -0.01900
C1203       C  0.55305686  0.70853661  0.23302001     0.03100
C1204       C  0.51924653  0.68322975  0.21659857    -0.04700
C1205       C  0.48531365  0.65865935  0.23353348    -0.01800
C1206       C  0.48574877  0.65780086  0.26626346     0.03100
C1207       C  0.58878716  0.73358834  0.28185296     0.37800
C1208       C  0.44934237  0.63494521  0.21743744     0.37800
C1209       C  0.45017059  0.63303667  0.28286688     0.36200
C1210       C  0.58823111  0.73415405  0.21625860     0.31400
N1211       N  0.42154345  0.61311252  0.29571154    -0.38600
N1212       N  0.61627419  0.75441089  0.20280148    -0.38600
N1213       N  0.42044974  0.61605086  0.20493768    -0.38100
N1214       N  0.61706102  0.75422413  0.29452036    -0.38100
C1215       C  0.62017322  0.67150920  0.38451846    -0.04700
C1216       C  0.63487363  0.66795128  0.41312989    -0.01900
C1217       C  0.65307415  0.64601777  0.41534210     0.03100
C1218       C  0.65888723  0.62969394  0.38848202    -0.04700
C1219       C  0.64941308  0.63868674  0.35935938    -0.01800
C1220       C  0.63018917  0.65929483  0.35744783     0.03100
C1221       C  0.62983192  0.68563472  0.44030147     0.37800
C1222       C  0.65500210  0.62261771  0.33130887     0.37800
C1223       C  0.61722697  0.66470144  0.32760594     0.36200
C1224       C  0.66240485  0.63728972  0.44543128     0.36200
N1225       N  0.60667378  0.66866611  0.30381200    -0.38600
N1226       N  0.66953255  0.63018574  0.46956633    -0.38600
N1227       N  0.65861958  0.60973089  0.30863697    -0.38100
N1228       N  0.62647105  0.70058207  0.46179165    -0.38100
C1229       C  0.34089600  0.87097651  0.28785171    -0.04700
C1230       C  0.35801729  0.90563855  0.27066434    -0.01900
C1231       C  0.35718237  0.90488180  0.23784809     0.03100
C1232       C  0.33874548  0.86945694  0.22206231    -0.04700
C1233       C  0.32409945  0.83509524  0.23938384    -0.01800
C1234       C  0.32598557  0.83598858  0.27197977     0.03100
C1235       C  0.37678264  0.94205072  0.28663536     0.37800
C1236       C  0.30878527  0.79872037  0.22369615     0.37800
C1237       C  0.31595555  0.80133193  0.28920228     0.36200
C1238       C  0.37504900  0.94052478  0.22041919     0.36200
N1239       N  0.30923021  0.77415831  0.30307866    -0.38600
N1240       N  0.38959913  0.96897202  0.20648547    -0.38600
N1241       N  0.29661036  0.76952866  0.21146697    -0.38100
N1242       N  0.39219509  0.97118856  0.29927608    -0.38100
C1243       C  0.35656287  0.97335459  0.39602540    -0.04700
C1244       C  0.34932628  0.99218908  0.37170988    -0.01900
C1245       C  0.36768861  0.03258398  0.37150422     0.03100
C1246       C  0.39246722  0.05388494  0.39588221    -0.04700
C1247       C  0.39492457  0.03467461  0.42223142    -0.01800
C1248       C  0.37713633  0.99448228  0.42228645     0.03100
C1249       C  0.32611136  0.97058174  0.34551294     0.37800
C1250       C  0.41848729  0.05666062  0.44821484     0.37800
C1251       C  0.38177630  0.97506646  0.44869595     0.36200
C1252       C  0.36453552  0.05237265  0.34469202     0.36200
N1253       N  0.38563936  0.95962676  0.46969325    -0.38600
N1254       N  0.36224412  0.06820383  0.32323731    -0.38600
N1255       N  0.43742797  0.07429451  0.46881730    -0.38100
N1256       N  0.30754854  0.95332863  0.32462510    -0.38100
C1257       C  0.41224526  0.79384123  0.37940519    -0.04700
C1258       C  0.45007612  0.81099804  0.36730214    -0.01900
C1259       C  0.47049470  0.79114115  0.36839941     0.03100
C1260       C  0.45369168  0.75427255  0.38242152    -0.04700
C1261       C  0.41455283  0.73626988  0.39222346    -0.01800
C1262       C  0.39393180  0.75525269  0.38953806     0.03100
C1263       C  0.46867681  0.84959513  0.35475727     0.37800
C1264       C  0.39448513  0.69801332  0.40592259     0.37800
C1265       C  0.35329808  0.73435761  0.39764645     0.36200
C1266       C  0.50944971  0.80974681  0.35653465     0.36200
N1267       N  0.32111647  0.71677766  0.40438822    -0.38600
N1268       N  0.54053447  0.82470171  0.34696686    -0.38600
N1269       N  0.37782608  0.66785398  0.41723140    -0.38100
N1270       N  0.48351670  0.88034711  0.34457686    -0.38100
C1271       C  0.14182338  0.49358541  0.21792845    -0.04700
C1272       C  0.17562402  0.50172108  0.23367146    -0.01900
C1273       C  0.17623767  0.50096579  0.26631905     0.03100
C1274       C  0.14337357  0.49295656  0.28367591    -0.04700
C1275       C  0.11014999  0.48675008  0.26798979    -0.01800
C1276       C  0.10916911  0.48644173  0.23528755     0.03100
C1277       C  0.21067226  0.51299786  0.21651901     0.37800
C1278       C  0.07663877  0.48011546  0.28541013     0.37800
C1279       C  0.07404684  0.47757390  0.21955197     0.36200
C1280       C  0.21163923  0.51057206  0.28186232     0.36200
N1281       N  0.04608341  0.47038703  0.20688876    -0.38600
N1282       N  0.24043296  0.51861674  0.29343947    -0.38600
N1283       N  0.04988427  0.47496813  0.29918184    -0.38100
N1284       N  0.23916145  0.52250206  0.20350927    -0.38100
C1285       C  0.04801671  0.39180781  0.38517944    -0.04700
C1286       C  0.02796916  0.38438496  0.35702310    -0.01900
C1287       C  0.98949410  0.37514318  0.35718213     0.03100
C1288       C  0.96912577  0.36714588  0.38546047    -0.04700
C1289       C  0.98700329  0.36583710  0.41309469    -0.01800
C1290       C  0.02701414  0.38016944  0.41322387     0.03100
C1291       C  0.04887532  0.39205319  0.32796903     0.37800
C1292       C  0.96482801  0.35169982  0.44144977     0.37800
C1293       C  0.04726692  0.38718575  0.44228303     0.36200
C1294       C  0.97217500  0.37723507  0.32849963     0.36200
N1295       N  0.06359340  0.39322225  0.46544495    -0.38600
N1296       N  0.95912237  0.37997957  0.30556117    -0.38600
N1297       N  0.94699191  0.33948971  0.46398577    -0.38100
N1298       N  0.06577138  0.39810592  0.30494635    -0.38100
C1299       C  0.19334973  0.63953598  0.38110313    -0.04700
C1300       C  0.20015292  0.66053416  0.35332483    -0.01900
C1301       C  0.21776861  0.70094467  0.35443305     0.03100
C1302       C  0.23162612  0.71995411  0.38294285    -0.04700
C1303       C  0.22159468  0.69828797  0.41072922    -0.01800
C1304       C  0.20099183  0.65830737  0.40975369     0.03100
C1305       C  0.19128083  0.64096533  0.32384979     0.37800
C1306       C  0.23467600  0.71656974  0.44067854     0.37800
C1307       C  0.18978940  0.63676212  0.43867957     0.36200
C1308       C  0.22206059  0.72264780  0.32653087     0.36200
N1309       N  0.18146845  0.62117077  0.46240494    -0.38600
N1310       N  0.22426264  0.73954892  0.30422295    -0.38600
N1311       N  0.24480927  0.72934794  0.46510090    -0.38100
N1312       N  0.18447405  0.62535782  0.30030437    -0.38100
C1313       C  0.29495468  0.55164826  0.35494745    -0.04700
C1314       C  0.31836750  0.59175193  0.35077087    -0.01900
C1315       C  0.35848662  0.60938534  0.35257980     0.03100
C1316       C  0.37499122  0.58748687  0.36066856    -0.04700
C1317       C  0.35273461  0.54729495  0.35710689    -0.01800
C1318       C  0.31242617  0.52922537  0.35407092     0.03100
C1319       C  0.30119850  0.61500402  0.34598232     0.37800
C1320       C  0.37093504  0.52466666  0.35679434     0.37800
C1321       C  0.28916216  0.48784393  0.35209280     0.36200
C1322       C  0.38307695  0.64936378  0.34410480     0.36200
N1323       N  0.27070605  0.45481526  0.35011462    -0.38600
N1324       N  0.40285492  0.68086919  0.33623168    -0.38600
N1325       N  0.38547549  0.50658520  0.35608684    -0.38100
N1326       N  0.28758442  0.63365233  0.34232169    -0.38100
C1327       C  0.53480564  0.86935234  0.78713273    -0.04700
C1328       C  0.56349648  0.86710306  0.77016053    -0.01900
C1329       C  0.56325222  0.86688776  0.73745482     0.03100
C1330       C  0.53426015  0.86884992  0.72075588    -0.04700
C1331       C  0.50629096  0.87246597  0.73775000    -0.01800
C1332       C  0.50649655  0.87251682  0.77058973     0.03100
C1333       C  0.59430798  0.86603545  0.78618354     0.37800
C1334       C  0.47633338  0.87506174  0.72180035     0.37800
C1335       C  0.47632373  0.87427453  0.78720503     0.36200
C1336       C  0.59403297  0.86579287  0.72118142     0.36200
N1337       N  0.45223571  0.87572498  0.80030993    -0.38600
N1338       N  0.61853038  0.86482321  0.70831045    -0.38600
N1339       N  0.45240116  0.87741220  0.70940644    -0.38100
N1340       N  0.61885266  0.86505949  0.79885444    -0.38100
C1341       C  0.61645955  0.96829476  0.61495659    -0.04700
C1342       C  0.62280314  0.98803855  0.64310859    -0.01900
C1343       C  0.63711693  0.02782669  0.64311384     0.03100
C1344       C  0.64829579  0.04912051  0.61511186    -0.04700
C1345       C  0.64709475  0.03020056  0.58737776    -0.01800
C1346       C  0.63020713  0.98972459  0.58716921     0.03100
C1347       C  0.61218256  0.96698932  0.67220135     0.37800
C1348       C  0.66193641  0.05190658  0.55893672     0.37800
C1349       C  0.62625726  0.96996844  0.55835553     0.36200
C1350       C  0.63761350  0.04615654  0.67196467     0.36200
N1351       N  0.62352911  0.95440923  0.53528313    -0.38600
N1352       N  0.63688174  0.05979875  0.69520925    -0.38600
N1353       N  0.67418064  0.06867375  0.53598590    -0.38100
N1354       N  0.60437667  0.95083804  0.69567188    -0.38100
C1355       C  0.56504668  0.79683649  0.53642804    -0.04700
C1356       C  0.56812350  0.76386859  0.53556990    -0.01900
C1357       C  0.56183360  0.74329596  0.50773738     0.03100
C1358       C  0.55442811  0.75661910  0.47991677    -0.04700
C1359       C  0.55735389  0.79289043  0.47989765    -0.01800
C1360       C  0.56240561  0.81272698  0.50807929     0.03100
C1361       C  0.57784084  0.75080918  0.56330095     0.37800
C1362       C  0.55144646  0.80824602  0.45147701     0.37800
C1363       C  0.56218185  0.84821593  0.50824111     0.36200
C1364       C  0.56149212  0.70755358  0.50817304     0.36200
N1365       N  0.56206379  0.87660022  0.50826193    -0.38600
N1366       N  0.56104882  0.67892268  0.50914802    -0.38600
N1367       N  0.54670025  0.82065087  0.42893070    -0.38100
N1368       N  0.58687505  0.73980382  0.58439386    -0.38100
C1369       C  0.41737324  0.87005303  0.47804872    -0.04700
C1370       C  0.40412745  0.83371455  0.49208227    -0.01900
C1371       C  0.42513766  0.82969240  0.51583582     0.03100
C1372       C  0.45870384  0.86213127  0.52709835    -0.04700
C1373       C  0.47204641  0.89847343  0.51339385    -0.01800
C1374       C  0.45184104  0.90225641  0.48832285     0.03100
C1375       C  0.36859576  0.79983094  0.48242683     0.37800
C1376       C  0.50645745  0.93171373  0.52501929     0.37800
C1377       C  0.46574420  0.93937066  0.47387359     0.36200
C1378       C  0.41070798  0.79195190  0.52969577     0.36200
N1379       N  0.47688442  0.96897560  0.46228852    -0.38600
N1380       N  0.39915994  0.76183383  0.54043842    -0.38600
N1381       N  0.53390061  0.95825658  0.53439972    -0.38100
N1382       N  0.34015841  0.77263303  0.47537625    -0.38100
C1383       C  0.15903388  0.67493575  0.78471638    -0.04700
C1384       C  0.15374428  0.70208245  0.76832764    -0.01900
C1385       C  0.15388596  0.70265709  0.73555501     0.03100
C1386       C  0.16062404  0.67694066  0.71856613    -0.04700
C1387       C  0.16938291  0.65224190  0.73496577    -0.01800
C1388       C  0.16752259  0.65041670  0.76767723     0.03100
C1389       C  0.14688755  0.72890610  0.78500758     0.37800
C1390       C  0.18265304  0.63020439  0.71832484     0.37800
C1391       C  0.17535778  0.62370887  0.78358397     0.36200
C1392       C  0.14604992  0.72924919  0.71949382     0.36200
N1393       N  0.18138913  0.60200940  0.79583647    -0.38600
N1394       N  0.13988869  0.75056645  0.70672226    -0.38600
N1395       N  0.19387250  0.61310193  0.70526745    -0.38100
N1396       N  0.14147228  0.75035263  0.79825506    -0.38100
C1397       C  0.04521294  0.65579868  0.62242986    -0.04700
C1398       C  0.02518460  0.64528203  0.65090737    -0.01900
C1399       C  0.98498136  0.62888638  0.65150940     0.03100
C1400       C  0.96458246  0.62350018  0.62363953    -0.04700
C1401       C  0.98562711  0.64011890  0.59611069    -0.01800
C1402       C  0.02583082  0.65552814  0.59530710     0.03100
C1403       C  0.04562725  0.64890593  0.67941527     0.37800
C1404       C  0.96539203  0.63903971  0.56826121     0.37800
C1405       C  0.04680112  0.66857455  0.56631216     0.36200
C1406       C  0.96431144  0.61326397  0.68040609     0.36200
N1407       N  0.06373735  0.67902952  0.54322183    -0.38600
N1408       N  0.94877398  0.60087600  0.70381785    -0.38600
N1409       N  0.94935468  0.63881623  0.54610958    -0.38100
N1410       N  0.06176185  0.65177821  0.70221132    -0.38100
C1411       C  0.11311135  0.56803306  0.53346848    -0.04700
C1412       C  0.09224949  0.56919234  0.50784647    -0.01900
C1413       C  0.09258380  0.55170208  0.47965932     0.03100
C1414       C  0.11365265  0.53299035  0.47747817    -0.04700
C1415       C  0.12756444  0.52536284  0.50473867    -0.01800
C1416       C  0.12790939  0.54337373  0.53256174     0.03100
C1417       C  0.07121059  0.58889162  0.51037892     0.37800
C1418       C  0.14375738  0.50084843  0.50362292     0.37800
C1419       C  0.14700739  0.53936162  0.55926838     0.36200
C1420       C  0.07395929  0.55550365  0.45247602     0.36200
N1421       N  0.16253085  0.53556838  0.58010866    -0.38600
N1422       N  0.05893996  0.55822677  0.43073170    -0.38600
N1423       N  0.15647839  0.48114018  0.50291919    -0.38100
N1424       N  0.05355712  0.60379954  0.51234543    -0.38100
C1425       C  0.19340343  0.76564892  0.52502903    -0.04700
C1426       C  0.22191229  0.80492881  0.52760929    -0.01900
C1427       C  0.24122631  0.82652656  0.50071122     0.03100
C1428       C  0.22990315  0.81001084  0.47107256    -0.04700
C1429       C  0.19613102  0.77368226  0.46853670    -0.01800
C1430       C  0.17876582  0.75102507  0.49533084     0.03100
C1431       C  0.23423834  0.82195892  0.55795419     0.37800
C1432       C  0.18176503  0.75802894  0.43809249     0.37800
C1433       C  0.14747055  0.71177250  0.49215050     0.36200
C1434       C  0.27528897  0.86420934  0.50362962     0.36200
N1435       N  0.12263039  0.68042567  0.48929694    -0.38600
N1436       N  0.30266603  0.89416104  0.50597250    -0.38600
N1437       N  0.17017134  0.74549815  0.41383219    -0.38100
N1438       N  0.24402600  0.83551017  0.58219968    -0.38100
C1439       C  0.29857241  0.76950448  0.62089953    -0.04700
C1440       C  0.31396207  0.76494087  0.64886284    -0.01900
C1441       C  0.35426377  0.78189517  0.65189765     0.03100
C1442       C  0.37889324  0.80476625  0.62764081    -0.04700
C1443       C  0.36339629  0.81469947  0.60267699    -0.01800
C1444       C  0.32358322  0.79509670  0.59809787     0.03100
C1445       C  0.28839119  0.74033091  0.67323198     0.37800
C1446       C  0.38795132  0.84727043  0.58306731     0.37800
C1447       C  0.30875602  0.79951701  0.56886364     0.36200
C1448       C  0.37033956  0.77602565  0.67975432     0.36200
N1449       N  0.29761402  0.80260528  0.54506104    -0.38600
N1450       N  0.38316432  0.77191809  0.70229992    -0.38600
N1451       N  0.40604929  0.87440759  0.56801958    -0.38100
N1452       N  0.26799150  0.72072690  0.69271027    -0.38100
C1453       C  0.34219825  0.48761112  0.71493934    -0.04700
C1454       C  0.37419183  0.51466174  0.73225277    -0.01900
C1455       C  0.37404959  0.51277286  0.76495192     0.03100
C1456       C  0.34060596  0.48536815  0.78156223    -0.04700
C1457       C  0.30819079  0.45865089  0.76412162    -0.01800
C1458       C  0.30895295  0.45986554  0.73121758     0.03100
C1459       C  0.40703054  0.54650265  0.71680675     0.37800
C1460       C  0.27439196  0.42824049  0.77969926     0.37800
C1461       C  0.27547750  0.43191685  0.71419211     0.36200
C1462       C  0.40916323  0.53938790  0.78098616     0.36200
N1463       N  0.24871089  0.40970237  0.70059294    -0.38600
N1464       N  0.43762557  0.56023991  0.79338002    -0.38600
N1465       N  0.24743680  0.40375933  0.79190618    -0.38100
N1466       N  0.43354463  0.57260511  0.70561041    -0.38100
C1467       C  0.34707883  0.39300503  0.61314527    -0.04700
C1468       C  0.35501952  0.37887575  0.58610606    -0.01900
C1469       C  0.37461301  0.35867372  0.58831851     0.03100
C1470       C  0.38763707  0.35429628  0.61734355    -0.04700
C1471       C  0.37384286  0.36241689  0.64445807    -0.01800
C1472       C  0.35311646  0.38138571  0.64234269     0.03100
C1473       C  0.34442471  0.38638260  0.55609137     0.37800
C1474       C  0.38163204  0.35187512  0.67446367     0.37800
C1475       C  0.34126719  0.39220298  0.67029919     0.36200
C1476       C  0.38205587  0.34307636  0.56093295     0.36200
N1477       N  0.33178466  0.40060745  0.69271157    -0.38600
N1478       N  0.38722090  0.32976598  0.53920648    -0.38600
N1479       N  0.38724427  0.34296683  0.69843816    -0.38100
N1480       N  0.33570901  0.39153641  0.53189754    -0.38100
C1481       C  0.27428946  0.48006814  0.52012048    -0.04700
C1482       C  0.29265120  0.50616603  0.49512070    -0.01900
C1483       C  0.27272839  0.50261194  0.46760929     0.03100
C1484       C  0.23356641  0.47411203  0.46462288    -0.04700
C1485       C  0.21636563  0.44542960  0.48773919    -0.01800
C1486       C  0.23679913  0.44811714  0.51532225     0.03100
C1487       C  0.33189574  0.53831738  0.49753144     0.37800
C1488       C  0.17734251  0.41409038  0.48364716     0.37800
C1489       C  0.21836316  0.41918283  0.53929127     0.36200
C1490       C  0.29278770  0.53027882  0.44291473     0.36200
N1491       N  0.20380879  0.39596651  0.55842256    -0.38600
N1492       N  0.31069137  0.55342871  0.42445394    -0.38600
N1493       N  0.14624595  0.38883684  0.48031380    -0.38100
N1494       N  0.36277387  0.56461539  0.49857512    -0.38100
C1495       C  0.43718632  0.53699594  0.52442737    -0.04700
C1496       C  0.41277248  0.51940836  0.49894925    -0.01900
C1497       C  0.42540376  0.53435366  0.46900428     0.03100
C1498       C  0.46372673  0.56394901  0.46419645    -0.04700
C1499       C  0.49029180  0.57319206  0.48832191    -0.01800
C1500       C  0.47693105  0.56080908  0.51892228     0.03100
C1501       C  0.37370472  0.48809663  0.50397396     0.37800
C1502       C  0.53088692  0.59648331  0.48159951     0.37800
C1503       C  0.50352969  0.57424083  0.54448604     0.36200
C1504       C  0.39787099  0.52187409  0.44411029     0.36200
N1505       N  0.52506953  0.58475748  0.56475415    -0.38600
N1506       N  0.37470735  0.51115852  0.42509857    -0.38600
N1507       N  0.56335379  0.61420625  0.47594990    -0.38100
N1508       N  0.34254091  0.46302789  0.50771934    -0.38100
C1509       C  0.45142292  0.63578506  0.64473956    -0.04700
C1510       C  0.49120085  0.66082498  0.64062784    -0.01900
C1511       C  0.50734081  0.70049207  0.64582728     0.03100
C1512       C  0.48285298  0.71525681  0.65023029    -0.04700
C1513       C  0.44460125  0.68947853  0.65990585    -0.01800
C1514       C  0.42953314  0.64973070  0.65837289     0.03100
C1515       C  0.51493468  0.64636723  0.62945038     0.37800
C1516       C  0.42009689  0.70341501  0.67026618     0.37800
C1517       C  0.39078679  0.62304740  0.66919475     0.36200
C1518       C  0.54854226  0.72559400  0.64755596     0.36200
N1519       N  0.36015860  0.60182414  0.67837763    -0.38600
N1520       N  0.58137217  0.74568698  0.65017433    -0.38600
N1521       N  0.39988450  0.71383693  0.67840322    -0.38100
N1522       N  0.53419926  0.63517437  0.62044303    -0.38100
C1523       C  0.27551705  0.56657377  0.62691099    -0.04700
C1524       C  0.23754954  0.54636722  0.63923124    -0.01900
C1525       C  0.21467996  0.56351712  0.63940043     0.03100
C1526       C  0.22962609  0.60105737  0.62746101    -0.04700
C1527       C  0.26924403  0.62308458  0.62054876    -0.01800
C1528       C  0.29148214  0.60584249  0.61862070     0.03100
C1529       C  0.22152714  0.50779370  0.65141591     0.37800
C1530       C  0.28799425  0.66411374  0.61536322     0.37800
C1531       C  0.33008285  0.62892013  0.60581177     0.36200
C1532       C  0.17567574  0.54208104  0.65127176     0.36200
N1533       N  0.36054881  0.64753346  0.59530044    -0.38600
N1534       N  0.14464067  0.52494989  0.66093701    -0.38600
N1535       N  0.30469541  0.69684659  0.61109089    -0.38100
N1536       N  0.20862445  0.47700011  0.66117367    -0.38100
loop_ 
_geom_bond_atom_site_label_1 
_geom_bond_atom_site_label_2 
_geom_bond_distance 
_geom_bond_site_symmetry_2 
_ccdc_geom_bond_type 
Fe1          O17   2.033       .  S
Fe1           O7   2.070       .  S
Fe1          O14   2.054       .  S
Fe1           O6   2.031       .  S
Fe1          O12   1.923       .  S
Fe2           O5   2.037       .  S
Fe2           O9   2.108       .  S
Fe2          O13   2.066       .  S
Fe2          O18   2.097       .  S
Fe2          O12   1.948       .  S
Fe3          O21   2.099       .  S
Fe3           O8   2.079       .  S
Fe3          O15   2.098       .  S
Fe3           O4   2.116       .  S
Fe3          O12   1.960       .  S
O4           C11   1.277       .  A
O5           C19   1.262       .  A
O6           C11   1.262       .  A
O7           C10   1.269       .  A
O8           C20   1.277       .  A
O9           C22   1.278       .  A
C10          O15   1.275       .  A
C10        C1481   1.508       .  S
C11        C1523   1.507       .  S
O13          C16   1.262       .  A
O14          C16   1.262       .  A
C16        C1509   1.476       .  S
O17          C22   1.270       .  A
O18          C20   1.281       .  A
C19          O21   1.273       .  A
C19        C1467   1.476       .  S
C20        C1453   1.506       .  S
C22        C1495   1.484       .  S
Fe23         O39   2.054       .  S
Fe23         O29   2.058       .  S
Fe23         O36   2.059       .  S
Fe23         O28   2.055       .  S
Fe23         O34   1.966       .  S
Fe24         O27   2.077       .  S
Fe24         O31   2.093       .  S
Fe24         O35   2.083       .  S
Fe24         O40   2.064       .  S
Fe24         O34   1.985       .  S
Fe25         O43   2.087       .  S
Fe25         O30   2.068       .  S
Fe25         O37   2.096       .  S
Fe25         O26   2.079       .  S
Fe25         O34   1.986       .  S
O26          C33   1.270       .  A
O27          C41   1.277       .  A
O28          C33   1.268       .  A
O29          C32   1.266       .  A
O30          C42   1.266       .  A
O31          C44   1.271       .  A
C32          O37   1.272       .  A
C32        C1425   1.499       .  S
C33        C1439   1.481       .  S
O35          C38   1.270       .  A
O36          C38   1.269       .  A
C38        C1526   1.501       .  S
O39          C44   1.265       .  A
O40          C42   1.266       .  A
C41          O43   1.276       .  A
C41        C1397   1.487       .  S
C42        C1386   1.499       .  S
C44        C1411   1.484       .  S
Fe45         O61   2.036       .  S
Fe45         O51   2.076       .  S
Fe45         O58   2.087       .  S
Fe45         O50   2.044       .  S
Fe45         O56   1.928       .  S
Fe46         O49   2.044       .  S
Fe46         O53   2.099       .  S
Fe46         O57   2.068       .  S
Fe46         O62   2.099       .  S
Fe46         O56   1.947       .  S
Fe47         O65   2.116       .  S
Fe47         O52   2.062       .  S
Fe47         O59   2.104       .  S
Fe47         O48   2.114       .  S
Fe47         O56   1.942       .  S
O48          C55   1.281       .  A
O49          C63   1.263       .  A
O50          C55   1.272       .  A
O51          C54   1.267       .  A
O52          C64   1.274       .  A
O53          C66   1.279       .  A
C54          O59   1.275       .  A
C54        C1355   1.494       .  S
C55        C1512   1.498       .  S
O57          C60   1.263       .  A
O58          C60   1.269       .  A
C60        C1442   1.487       .  S
O61          C66   1.268       .  A
O62          C64   1.279       .  A
C63          O65   1.278       .  A
C63        C1341   1.489       .  S
C64        C1330   1.508       .  S
C66        C1372   1.476       .  S
Fe67         O83   2.067       .  S
Fe67         O73   2.036       .  S
Fe67         O80   2.042       .  S
Fe67         O72   2.049       .  S
Fe67         O78   1.935       .  S
Fe68         O71   2.020       .  S
Fe68         O75   2.069       .  S
Fe68         O79   2.061       .  S
Fe68         O84   2.052       .  S
Fe68         O78   1.974       .  S
Fe69         O87   2.096       .  S
Fe69         O74   2.103       .  S
Fe69         O81   2.119       .  S
Fe69         O70   2.079       .  S
Fe69         O78   1.976       .  S
O70          C77   1.272       .  A
O71          C85   1.260       .  A
O72          C77   1.269       .  A
O73          C76   1.264       .  A
O74          C86   1.281       .  A
O75          C88   1.272       .  A
C76          O81   1.277       .  A
C76        C1484   1.496       .  S
C77        C1313   1.489       .  S
O79          C82   1.259       .  A
O80          C82   1.259       .  A
C82        C1299   1.468       .  S
O83          C88   1.275       .  A
O84          C86   1.272       .  A
C85          O87   1.272       .  A
C85        C1285   1.475       .  S
C86        C1274   1.487       .  S
C88        C1414   1.483       .  S
Fe89        O105   2.028       .  S
Fe89         O95   2.042       .  S
Fe89        O102   2.078       .  S
Fe89         O94   2.029       .  S
Fe89        O100   1.911       .  S
Fe90         O93   2.056       .  S
Fe90         O97   2.115       .  S
Fe90        O101   2.089       .  S
Fe90        O106   2.082       .  S
Fe90        O100   1.964       .  S
Fe91        O109   2.092       .  S
Fe91         O96   2.071       .  S
Fe91        O103   2.101       .  S
Fe91         O92   2.110       .  S
Fe91        O100   1.955       .  S
O92          C99   1.279       .  A
O93         C107   1.275       .  A
O94          C99   1.268       .  A
O95          C98   1.259       .  A
O96         C108   1.273       .  A
O97         C110   1.274       .  A
C98         O103   1.271       .  A
C98        C1428   1.489       .  S
C99        C1302   1.476       .  S
O101        C104   1.272       .  A
O102        C104   1.270       .  A
C104       C1257   1.506       .  S
O105        C110   1.256       .  A
O106        C108   1.271       .  A
C107        O109   1.278       .  A
C107       C1243   1.485       .  S
C108       C1229   1.490       .  S
C110       C1369   1.482       .  S
Fe111       O127   2.049       .  S
Fe111       O117   2.069       .  S
Fe111       O124   2.074       .  S
Fe111       O116   2.045       .  S
Fe111       O122   1.955       .  S
Fe112       O115   2.053       .  S
Fe112       O119   2.080       .  S
Fe112       O123   2.072       .  S
Fe112       O128   2.059       .  S
Fe112       O122   1.981       .  S
Fe113       O131   2.125       .  S
Fe113       O118   2.083       .  S
Fe113       O125   2.101       .  S
Fe113       O114   2.116       .  S
Fe113       O122   1.976       .  S
O114        C121   1.277       .  A
O115        C129   1.271       .  A
O116        C121   1.262       .  A
O117        C120   1.272       .  A
O118        C130   1.270       .  A
O119        C132   1.266       .  A
C120        O125   1.276       .  A
C120       C1358   1.500       .  S
C121       C1260   1.516       .  S
O123        C126   1.269       .  A
O124        C126   1.274       .  A
C126       C1316   1.490       .  S
O127        C132   1.263       .  A
O128        C130   1.266       .  A
C129        O131   1.283       .  A
C129       C1215   1.498       .  S
C130       C1201   1.501       .  S
C132       C1498   1.478       .  S
Fe133       O149   2.091       .  S
Fe133       O139   2.037       .  S
Fe133       O146   2.070       .  S
Fe133       O138   2.075       .  S
Fe133       O144   1.990       .  S
Fe134       O137   2.062       .  S
Fe134       O141   2.047       .  S
Fe134       O145   2.064       .  S
Fe134       O150   2.023       .  S
Fe134       O144   1.954       .  S
Fe135       O153   2.139       .  S
Fe135       O140   2.109       .  S
Fe135       O147   2.131       .  S
Fe135       O136   2.101       .  S
Fe135       O144   1.988       .  S
O136        C143   1.280       .  A
O137        C151   1.271       .  A
O138        C143   1.275       .  A
O139        C142   1.261       .  A
O140        C152   1.274       .  A
O141        C154   1.270       .  A
C142        O147   1.280       .  A
C142       C1218   1.501       .  S
C143       C1131   1.520       .  S
O145        C148   1.264       .  A
O146        C148   1.262       .  A
C148       C1173   1.490       .  S
O149        C154   1.274       .  A
O150        C152   1.261       .  A
C151        O153   1.284       .  A
C151       C1145   1.517       .  S
C152       C1187   1.511       .  S
C154       C1159   1.485       .  S
Fe155       O171   2.030       .  S
Fe155       O161   2.071       .  S
Fe155       O168   2.061       .  S
Fe155       O160   2.018       .  S
Fe155       O166   1.952       .  S
Fe156       O159   2.040       .  S
Fe156       O163   2.112       .  S
Fe156       O167   2.071       .  S
Fe156       O172   2.090       .  S
Fe156       O166   1.972       .  S
Fe157       O175   2.094       .  S
Fe157       O162   2.064       .  S
Fe157       O169   2.074       .  S
Fe157       O158   2.123       .  S
Fe157       O166   1.987       .  S
O158        C165   1.274       .  A
O159        C173   1.262       .  A
O160        C165   1.260       .  A
O161        C164   1.272       .  A
O162        C174   1.272       .  A
O163        C176   1.276       .  A
C164        O169   1.271       .  A
C164       C1117   1.482       .  S
C165       C1089   1.499       .  S
O167        C170   1.266       .  A
O168        C170   1.269       .  A
C170       C1162   1.476       .  S
O171        C176   1.261       .  A
O172        C174   1.279       .  A
C173        O175   1.273       .  A
C173       C1075   1.492       .  S
C174       C1470   1.480       .  S
C176       C1103   1.518       .  S
Fe177       O193   2.095       .  S
Fe177       O183   2.035       .  S
Fe177       O190   2.077       .  S
Fe177       O182   2.083       .  S
Fe177       O188   1.983       .  S
Fe178       O181   2.060       .  S
Fe178       O185   2.042       .  S
Fe178       O189   2.049       .  S
Fe178       O194   2.048       .  S
Fe178       O188   1.953       .  S
Fe179       O197   2.083       .  S
Fe179       O184   2.098       .  S
Fe179       O191   2.077       .  S
Fe179       O180   2.067       .  S
Fe179       O188   1.993       .  S
O180        C187   1.273       .  A
O181        C195   1.266       .  A
O182        C187   1.278       .  A
O183        C186   1.261       .  A
O184        C196   1.274       .  A
O185        C198   1.272       .  A
C186        O191   1.267       .  A
C186       C1246   1.475       .  S
C187       C1036   1.490       .  S
O189        C192   1.262       .  A
O190        C192   1.265       .  A
C192       C1061   1.487       .  S
O193        C198   1.276       .  A
O194        C196   1.268       .  A
C195        O197   1.268       .  A
C195       C1092   1.489       .  S
C196       C1176   1.488       .  S
C198       C1047   1.497       .  S
Fe199       O215   2.124       .  S
Fe199       O205   2.021       .  S
Fe199       O212   2.054       .  S
Fe199       O204   2.093       .  S
Fe199       O210   1.953       .  S
Fe200       O203   2.068       .  S
Fe200       O207   2.039       .  S
Fe200       O211   2.072       .  S
Fe200       O216   2.033       .  S
Fe200       O210   1.933       .  S
Fe201       O219   2.123       .  S
Fe201       O206   2.137       .  S
Fe201       O213   2.129       .  S
Fe201       O202   2.083       .  S
Fe201       O210   1.958       .  S
O202        C209   1.277       .  A
O203        C217   1.267       .  A
O204        C209   1.278       .  A
O205        C208   1.261       .  A
O206        C218   1.285       .  A
O207        C220   1.270       .  A
C208        O213   1.281       .  A
C208       C1400   1.485       .  S
C209        C991   1.505       .  S
O211        C214   1.264       .  A
O212        C214   1.259       .  A
C214       C1019   1.476       .  S
O215        C220   1.282       .  A
O216        C218   1.267       .  A
C217        O219   1.278       .  A
C217       C1148   1.521       .  S
C218       C1106   1.520       .  S
C220       C1005   1.495       .  S
Fe221       O237   2.031       .  S
Fe221       O227   2.042       .  S
Fe221       O234   2.057       .  S
Fe221       O226   2.029       .  S
Fe221       O232   1.957       .  S
Fe222       O225   2.071       .  S
Fe222       O229   2.095       .  S
Fe222       O233   2.104       .  S
Fe222       O238   2.078       .  S
Fe222       O232   1.989       .  S
Fe223       O241   2.072       .  S
Fe223       O228   2.074       .  S
Fe223       O235   2.080       .  S
Fe223       O224   2.094       .  S
Fe223       O232   1.996       .  S
O224        C231   1.272       .  A
O225        C239   1.272       .  A
O226        C231   1.264       .  A
O227        C230   1.266       .  A
O228        C240   1.268       .  A
O229        C242   1.269       .  A
C230        O235   1.268       .  A
C230       C1064   1.479       .  S
C231        C980   1.497       .  S
O233        C236   1.276       .  A
O234        C236   1.268       .  A
C236       C1008   1.488       .  S
O237        C242   1.262       .  A
O238        C240   1.272       .  A
C239        O241   1.272       .  A
C239        C963   1.489       .  S
C240       C1288   1.487       .  S
C242       C1190   1.494       .  S
Fe243       O259   2.060       .  S
Fe243       O249   2.059       .  S
Fe243       O256   2.063       .  S
Fe243       O248   2.048       .  S
Fe243       O254   1.955       .  S
Fe244       O247   2.082       .  S
Fe244       O251   2.068       .  S
Fe244       O255   2.094       .  S
Fe244       O260   2.061       .  S
Fe244       O254   1.966       .  S
Fe245       O263   2.076       .  S
Fe245       O250   2.094       .  S
Fe245       O257   2.079       .  S
Fe245       O246   2.094       .  S
Fe245       O254   1.989       .  S
O246        C253   1.275       .  A
O247        C261   1.280       .  A
O248        C253   1.266       .  A
O249        C252   1.269       .  A
O250        C262   1.269       .  A
O251        C264   1.263       .  A
C252        O257   1.270       .  A
C252       C1022   1.486       .  S
C253        C977   1.498       .  S
O255        C258   1.282       .  A
O256        C258   1.275       .  A
C258       C1050   1.483       .  S
O259        C264   1.261       .  A
O260        C262   1.264       .  A
C261        O263   1.276       .  A
C261        C949   1.491       .  S
C262       C1344   1.496       .  S
C264       C1120   1.497       .  S
Fe265       O281   2.053       .  S
Fe265       O271   2.068       .  S
Fe265       O278   2.072       .  S
Fe265       O270   2.038       .  S
Fe265       O276   1.964       .  S
Fe266       O269   2.056       .  S
Fe266       O273   2.105       .  S
Fe266       O277   2.083       .  S
Fe266       O282   2.080       .  S
Fe266       O276   1.992       .  S
Fe267       O285   2.098       .  S
Fe267       O272   2.085       .  S
Fe267       O279   2.104       .  S
Fe267       O268   2.096       .  S
Fe267       O276   1.995       .  S
O268        C275   1.273       .  A
O269        C283   1.271       .  A
O270        C275   1.266       .  A
O271        C274   1.271       .  A
O272        C284   1.271       .  A
O273        C286   1.273       .  A
C274        O279   1.275       .  A
C274        C893   1.506       .  S
C275        C935   1.491       .  S
O277        C280   1.270       .  A
O278        C280   1.271       .  A
C280        C921   1.500       .  S
O281        C286   1.264       .  A
O282        C284   1.272       .  A
C283        O285   1.276       .  A
C283        C882   1.483       .  S
C284       C1134   1.517       .  S
C286        C910   1.490       .  S
Fe287       O303   2.064       .  S
Fe287       O293   2.028       .  S
Fe287       O300   2.043       .  S
Fe287       O292   2.072       .  S
Fe287       O298   1.924       .  S
Fe288       O291   2.074       .  S
Fe288       O295   2.096       .  S
Fe288       O299   2.114       .  S
Fe288       O304   2.066       .  S
Fe288       O298   1.943       .  S
Fe289       O307   2.085       .  S
Fe289       O294   2.084       .  S
Fe289       O301   2.111       .  S
Fe289       O290   2.083       .  S
Fe289       O298   1.975       .  S
O290        C297   1.271       .  A
O291        C305   1.274       .  A
O292        C297   1.271       .  A
O293        C296   1.257       .  A
O294        C306   1.274       .  A
O295        C308   1.272       .  A
C296        O301   1.272       .  A
C296        C837   1.484       .  S
C297        C865   1.482       .  S
O299        C302   1.278       .  A
O300        C302   1.266       .  A
C302        C851   1.505       .  S
O303        C308   1.269       .  A
O304        C306   1.275       .  A
C305        O307   1.275       .  A
C305        C826   1.485       .  S
C306       C1078   1.492       .  S
C308        C907   1.491       .  S
Fe309       O325   2.051       .  S
Fe309       O315   2.063       .  S
Fe309       O322   2.079       .  S
Fe309       O314   2.045       .  S
Fe309       O320   1.953       .  S
Fe310       O313   2.048       .  S
Fe310       O317   2.113       .  S
Fe310       O321   2.068       .  S
Fe310       O326   2.073       .  S
Fe310       O320   1.977       .  S
Fe311       O329   2.077       .  S
Fe311       O316   2.050       .  S
Fe311       O323   2.073       .  S
Fe311       O312   2.087       .  S
Fe311       O320   1.988       .  S
O312        C319   1.276       .  A
O313        C327   1.273       .  A
O314        C319   1.272       .  A
O315        C318   1.264       .  A
O316        C328   1.259       .  A
O317        C330   1.275       .  A
C318        O323   1.265       .  A
C318        C795   1.495       .  S
C319        C809   1.497       .  S
O321        C324   1.267       .  A
O322        C324   1.273       .  A
C324        C868   1.499       .  S
O325        C330   1.266       .  A
O326        C328   1.268       .  A
C327        O329   1.278       .  A
C327        C767   1.467       .  S
C328        C952   1.484       .  S
C330        C781   1.493       .  S
Fe331       O347   2.066       .  S
Fe331       O337   2.061       .  S
Fe331       O344   2.052       .  S
Fe331       O336   2.068       .  S
Fe331       O342   1.946       .  S
Fe332       O335   2.052       .  S
Fe332       O339   2.109       .  S
Fe332       O343   2.074       .  S
Fe332       O348   2.085       .  S
Fe332       O342   1.960       .  S
Fe333       O351   2.123       .  S
Fe333       O338   2.069       .  S
Fe333       O345   2.110       .  S
Fe333       O334   2.114       .  S
Fe333       O342   1.968       .  S
O334        C341   1.281       .  A
O335        C349   1.271       .  A
O336        C341   1.275       .  A
O337        C340   1.264       .  A
O338        C350   1.268       .  A
O339        C352   1.280       .  A
C340        O345   1.274       .  A
C340        C896   1.498       .  S
C341        C854   1.504       .  S
O343        C346   1.265       .  A
O344        C346   1.261       .  A
C346        C812   1.490       .  S
O347        C352   1.276       .  A
O348        C350   1.272       .  A
C349        O351   1.284       .  A
C349        C739   1.493       .  S
C350        C994   1.510       .  S
C352        C753   1.514       .  S
Fe353       O369   2.083       .  S
Fe353       O359   2.028       .  S
Fe353       O366   2.026       .  S
Fe353       O358   2.043       .  S
Fe353       O364   1.921       .  S
Fe354       O357   2.045       .  S
Fe354       O361   2.112       .  S
Fe354       O365   2.084       .  S
Fe354       O370   2.084       .  S
Fe354       O364   1.941       .  S
Fe355       O373   2.097       .  S
Fe355       O360   2.073       .  S
Fe355       O367   2.122       .  S
Fe355       O356   2.140       .  S
Fe355       O364   1.956       .  S
O356        C363   1.289       .  A
O357        C371   1.264       .  A
O358        C363   1.275       .  A
O359        C362   1.247       .  A
O360        C372   1.277       .  A
O361        C374   1.286       .  A
C362        O367   1.267       .  A
C362        C840   1.498       .  S
C363        C924   1.516       .  S
O365        C368   1.263       .  A
O366        C368   1.257       .  A
C368        C725   1.486       .  S
O369        C374   1.283       .  A
O370        C372   1.279       .  A
C371        O373   1.273       .  A
C371        C711   1.485       .  S
C372       C1033   1.497       .  S
C374        C784   1.510       .  S
Fe375       O391   2.054       .  S
Fe375       O381   2.070       .  S
Fe375       O388   2.058       .  S
Fe375       O380   2.044       .  S
Fe375       O386   1.942       .  S
Fe376       O379   2.087       .  S
Fe376       O383   2.092       .  S
Fe376       O387   2.096       .  S
Fe376       O392   2.076       .  S
Fe376       O386   1.974       .  S
Fe377       O395   2.082       .  S
Fe377       O382   2.072       .  S
Fe377       O389   2.083       .  S
Fe377       O378   2.084       .  S
Fe377       O386   1.979       .  S
O378        C385   1.273       .  A
O379        C393   1.275       .  A
O380        C385   1.267       .  A
O381        C384   1.270       .  A
O382        C394   1.269       .  A
O383        C396   1.274       .  A
C384        O389   1.269       .  A
C384        C798   1.497       .  S
C385        C728   1.490       .  S
O387        C390   1.272       .  A
O388        C390   1.268       .  A
C390        C938   1.495       .  S
O391        C396   1.267       .  A
O392        C394   1.273       .  A
C393        O395   1.274       .  A
C393        C697   1.492       .  S
C394        C966   1.496       .  S
C396        C756   1.484       .  S
Fe397       O413   2.024       .  S
Fe397       O403   2.046       .  S
Fe397       O410   2.074       .  S
Fe397       O402   2.036       .  S
Fe397       O408   1.928       .  S
Fe398       O401   2.074       .  S
Fe398       O405   2.089       .  S
Fe398       O409   2.100       .  S
Fe398       O414   2.043       .  S
Fe398       O408   1.954       .  S
Fe399       O417   2.099       .  S
Fe399       O404   2.090       .  S
Fe399       O411   2.106       .  S
Fe399       O400   2.137       .  S
Fe399       O408   1.951       .  S
O400        C407   1.275       .  A
O401        C415   1.275       .  A
O402        C407   1.252       .  A
O403        C406   1.274       .  A
O404        C416   1.272       .  A
O405        C418   1.266       .  A
C406        O411   1.282       .  A
C406        C686   1.500       .  S
C407        C644   1.507       .  S
O409        C412   1.279       .  A
O410        C412   1.278       .  A
C412        C658   1.502       .  S
O413        C418   1.257       .  A
O414        C416   1.264       .  A
C415        O417   1.281       .  A
C415       C1456   1.517       .  S
C416        C823   1.478       .  S
C418        C669   1.486       .  S
Fe419       O435   2.086       .  S
Fe419       O425   2.031       .  S
Fe419       O432   2.071       .  S
Fe419       O424   2.060       .  S
Fe419       O430   1.982       .  S
Fe420       O423   2.065       .  S
Fe420       O427   2.039       .  S
Fe420       O431   2.056       .  S
Fe420       O436   2.021       .  S
Fe420       O430   1.947       .  S
Fe421       O439   2.114       .  S
Fe421       O426   2.102       .  S
Fe421       O433   2.108       .  S
Fe421       O422   2.080       .  S
Fe421       O430   1.981       .  S
O422        C429   1.273       .  A
O423        C437   1.271       .  A
O424        C429   1.270       .  A
O425        C428   1.264       .  A
O426        C438   1.274       .  A
O427        C440   1.266       .  A
C428        O433   1.278       .  A
C428        C700   1.482       .  S
C429       C1271   1.488       .  S
O431        C434   1.266       .  A
O432        C434   1.263       .  A
C434        C613   1.485       .  S
O435        C440   1.270       .  A
O436        C438   1.261       .  A
C437        O439   1.277       .  A
C437        C641   1.500       .  S
C438        C627   1.504       .  S
C440        C602   1.479       .  S
Fe441       O457   2.061       .  S
Fe441       O447   2.042       .  S
Fe441       O454   2.048       .  S
Fe441       O446   2.062       .  S
Fe441       O452   1.959       .  S
Fe442       O445   2.061       .  S
Fe442       O449   2.075       .  S
Fe442       O453   2.086       .  S
Fe442       O458   2.057       .  S
Fe442       O452   1.982       .  S
Fe443       O461   2.081       .  S
Fe443       O448   2.119       .  S
Fe443       O455   2.108       .  S
Fe443       O444   2.106       .  S
Fe443       O452   1.974       .  S
O444        C451   1.278       .  A
O445        C459   1.267       .  A
O446        C451   1.272       .  A
O447        C450   1.261       .  A
O448        C460   1.282       .  A
O449        C462   1.270       .  A
C450        O455   1.274       .  A
C450        C585   1.509       .  S
C451        C574   1.498       .  S
O453        C456   1.268       .  A
O454        C456   1.263       .  A
C456        C599   1.482       .  S
O457        C462   1.271       .  A
O458        C460   1.270       .  A
C459        O461   1.271       .  A
C459       C1383   1.501       .  S
C460        C742   1.495       .  S
C462        C683   1.484       .  S
Fe463       O479   2.115       .  S
Fe463       O469   2.050       .  S
Fe463       O476   2.073       .  S
Fe463       O468   2.096       .  S
Fe463       O474   1.949       .  S
Fe464       O467   2.052       .  S
Fe464       O471   2.026       .  S
Fe464       O475   2.080       .  S
Fe464       O480   2.027       .  S
Fe464       O474   1.904       .  S
Fe465       O483   2.090       .  S
Fe465       O470   2.107       .  S
Fe465       O477   2.094       .  S
Fe465       O466   2.057       .  S
Fe465       O474   1.945       .  S
O466        C473   1.270       .  A
O467        C481   1.264       .  A
O468        C473   1.276       .  A
O469        C472   1.270       .  A
O470        C482   1.277       .  A
O471        C484   1.258       .  A
C472        O477   1.277       .  A
C472        C770   1.472       .  S
C473       C1327   1.503       .  S
O475        C478   1.271       .  A
O476        C478   1.270       .  A
C478        C588   1.494       .  S
O479        C484   1.275       .  A
O480        C482   1.265       .  A
C481        O483   1.270       .  A
C481        C543   1.484       .  S
C482        C672   1.473       .  S
C484        C557   1.479       .  S
Fe485       O501   2.065       .  S
Fe485       O491   2.042       .  S
Fe485       O498   2.038       .  S
Fe485       O490   2.068       .  S
Fe485       O496   1.933       .  S
Fe486       O489   2.094       .  S
Fe486       O493   2.083       .  S
Fe486       O497   2.099       .  S
Fe486       O502   2.063       .  S
Fe486       O496   1.961       .  S
Fe487       O505   2.071       .  S
Fe487       O492   2.099       .  S
Fe487       O499   2.115       .  S
Fe487       O488   2.102       .  S
Fe487       O496   1.958       .  S
O488        C495   1.275       .  A
O489        C503   1.278       .  A
O490        C495   1.266       .  A
O491        C494   1.269       .  A
O492        C504   1.273       .  A
O493        C506   1.268       .  A
C494        O499   1.279       .  A
C494        C616   1.499       .  S
C495        C571   1.492       .  S
O497        C500   1.278       .  A
O498        C500   1.269       .  A
C500        C560   1.483       .  S
O501        C506   1.265       .  A
O502        C504   1.268       .  A
C503        O505   1.277       .  A
C503       C1232   1.493       .  S
C504        C714   1.494       .  S
C506        C529   1.487       .  S
Fe507       O523   2.071       .  S
Fe507       O513   2.073       .  S
Fe507       O520   2.069       .  S
Fe507       O512   2.066       .  S
Fe507       O518   1.968       .  S
Fe508       O511   2.065       .  S
Fe508       O515   2.059       .  S
Fe508       O519   2.091       .  S
Fe508       O524   2.056       .  S
Fe508       O518   1.985       .  S
Fe509       O527   2.068       .  S
Fe509       O514   2.094       .  S
Fe509       O521   2.083       .  S
Fe509       O510   2.085       .  S
Fe509       O518   1.986       .  S
O510        C517   1.270       .  A
O511        C525   1.266       .  A
O512        C517   1.269       .  A
O513        C516   1.271       .  A
O514        C526   1.277       .  A
O515        C528   1.266       .  A
C516        O521   1.272       .  A
C516        C532   1.489       .  S
C517        C546   1.494       .  S
O519        C522   1.270       .  A
O520        C522   1.268       .  A
C522        C655   1.490       .  S
O523        C528   1.273       .  A
O524        C526   1.272       .  A
C525        O527   1.266       .  A
C525       C1204   1.498       .  S
C526        C879   1.480       .  S
C528        C630   1.496       .  S
C529        C530   1.410       .  A
C529        C534   1.409       .  A
C530        C531   1.409       .  A
C530        C535   1.448       .  S
C531        C532   1.411       .  A
C531        C538   1.449       .  S
C532        C533   1.416       .  A
C533        C534   1.419       .  A
C533        C536   1.449       .  S
C534        C537   1.447       .  S
C535        N542   1.157       .  T
C536        N541   1.157       .  T
C537        N539   1.157       .  T
C538        N540   1.157       .  T
C543        C544   1.411       .  A
C543        C548   1.410       .  A
C544        C545   1.416   1_556  A
C544        C549   1.446   1_556  S
C545        C546   1.414       .  A
C545        C552   1.451       .  S
C546        C547   1.412   1_554  A
C547        C548   1.413       .  A
C547        C550   1.446       .  S
C548        C551   1.451       .  S
C549        N556   1.156       .  T
C550        N555   1.156       .  T
C551        N553   1.157       .  T
C552        N554   1.158       .  T
C557        C558   1.411       .  A
C557        C562   1.416       .  A
C558        C559   1.417   1_556  A
C558        C563   1.449       .  S
C559        C560   1.415       .  A
C559        C566   1.449       .  S
C560        C561   1.417       .  A
C561        C562   1.398   1_554  A
C561        C564   1.457       .  S
C562        C565   1.457       .  S
C563        N570   1.157       .  T
C564        N569   1.158       .  T
C565        N567   1.158       .  T
C566        N568   1.157       .  T
C571        C572   1.412       .  A
C571        C576   1.413       .  A
C572        C573   1.415       .  A
C572        C577   1.444       .  S
C573        C574   1.412   1_554  A
C573        C580   1.450       .  S
C574        C575   1.417       .  A
C575        C576   1.417   1_556  A
C575        C578   1.449       .  S
C576        C579   1.450       .  S
C577        N584   1.155       .  T
C578        N583   1.157       .  T
C579        N581   1.157       .  T
C580        N582   1.157       .  T
C585        C586   1.426       .  A
C585        C590   1.420       .  A
C586        C587   1.405       .  A
C586        C591   1.454       .  S
C587        C588   1.409       .  A
C587        C594   1.455       .  S
C588        C589   1.415       .  A
C589        C590   1.423       .  A
C589        C592   1.450       .  S
C590        C593   1.448       .  S
C591        N598   1.157       .  T
C592        N597   1.157       .  T
C593        N595   1.158       .  T
C594        N596   1.158       .  T
C599        C600   1.413       .  A
C599        C604   1.412       .  A
C600        C601   1.417   1_556  A
C600        C605   1.445       .  S
C601        C602   1.408       .  A
C601        C608   1.447       .  S
C602        C603   1.408   1_554  A
C603        C604   1.403       .  A
C603        C606   1.450   1_556  S
C604        C607   1.448       .  S
C605        N612   1.156       .  T
C606        N611   1.156       .  T
C607        N609   1.156       .  T
C608        N610   1.157       .  T
C613        C614   1.410       .  A
C613        C618   1.407       .  A
C614        C615   1.417       .  A
C614        C619   1.448       .  S
C615        C616   1.416       .  A
C615        C622   1.446       .  S
C616        C617   1.416       .  A
C617        C618   1.405       .  A
C617        C620   1.448       .  S
C618        C621   1.451       .  S
C619        N626   1.157       .  T
C620        N625   1.155       .  T
C621        N623   1.157       .  T
C622        N624   1.158       .  T
C627        C628   1.418       .  A
C627        C632   1.426       .  A
C628        C629   1.419       .  A
C628        C633   1.449       .  S
C629        C630   1.419       .  A
C629        C636   1.451       .  S
C630        C631   1.411       .  A
C631        C632   1.404       .  A
C631        C634   1.454       .  S
C632        C635   1.455       .  S
C633        N640   1.158       .  T
C634        N639   1.158       .  T
C635        N637   1.156       .  T
C636        N638   1.157       .  T
C641        C642   1.407       .  A
C641        C646   1.415       .  A
C642        C643   1.403   1_554  A
C642        C647   1.448       .  S
C643        C644   1.423       .  A
C643        C650   1.458       .  S
C644        C645   1.420       .  A
C645        C646   1.431   1_556  A
C645        C648   1.446       .  S
C646        C649   1.447       .  S
C647        N654   1.156       .  T
C648        N653   1.159       .  T
C649        N651   1.156       .  T
C650        N652   1.156       .  T
C655        C656   1.409       .  A
C655        C660   1.411       .  A
C656        C657   1.417   1_554  A
C656        C661   1.446       .  S
C657        C658   1.418       .  A
C657        C664   1.448       .  S
C658        C659   1.412   1_556  A
C659        C660   1.411       .  A
C659        C662   1.450       .  S
C660        C663   1.447       .  S
C661        N668   1.157       .  T
C662        N667   1.157       .  T
C663        N665   1.156       .  T
C664        N666   1.158       .  T
C669        C670   1.416       .  A
C669        C674   1.416       .  A
C670        C671   1.397       .  A
C670        C675   1.451       .  S
C671        C672   1.408       .  A
C671        C678   1.456       .  S
C672        C673   1.412       .  A
C673        C674   1.420       .  A
C673        C676   1.449       .  S
C674        C677   1.449       .  S
C675        N682   1.155       .  T
C676        N681   1.158       .  T
C677        N679   1.157       .  T
C678        N680   1.157       .  T
C683        C684   1.404       .  A
C683        C688   1.406       .  A
C684        C685   1.412       .  A
C684        C689   1.451       .  S
C685        C686   1.426       .  A
C685        C692   1.450       .  S
C686        C687   1.422       .  A
C687        C688   1.409       .  A
C687        C690   1.452       .  S
C688        C691   1.451       .  S
C689        N696   1.157       .  T
C690        N695   1.158       .  T
C691        N693   1.157       .  T
C692        N694   1.157       .  T
C697        C698   1.415       .  A
C697        C702   1.413       .  A
C698        C699   1.418   1_655  A
C698        C703   1.448       .  S
C699        C700   1.410       .  A
C699        C706   1.448       .  S
C700        C701   1.411       .  A
C701        C702   1.411   1_455  A
C701        C704   1.451       .  S
C702        C705   1.449       .  S
C703        N710   1.157       .  T
C704        N709   1.157       .  T
C705        N707   1.157       .  T
C706        N708   1.157       .  T
C711        C712   1.410       .  A
C711        C716   1.411       .  A
C712        C713   1.412   1_545  A
C712        C717   1.450       .  S
C713        C714   1.412       .  A
C713        C720   1.448       .  S
C714        C715   1.415       .  A
C715        C716   1.417   1_565  A
C715        C718   1.449       .  S
C716        C719   1.450       .  S
C717        N724   1.157       .  T
C718        N723   1.157       .  T
C719        N721   1.157       .  T
C720        N722   1.157       .  T
C725        C726   1.412       .  A
C725        C730   1.414       .  A
C726        C727   1.398       .  A
C726        C731   1.453       .  S
C727        C728   1.418       .  A
C727        C734   1.455       .  S
C728        C729   1.417       .  A
C729        C730   1.421       .  A
C729        C732   1.449       .  S
C730        C733   1.449       .  S
C731        N738   1.157       .  T
C732        N737   1.158       .  T
C733        N735   1.157       .  T
C734        N736   1.157       .  T
C739        C740   1.413       .  A
C739        C744   1.414       .  A
C740        C741   1.415   1_655  A
C740        C745   1.451       .  S
C741        C742   1.414       .  A
C741        C748   1.449       .  S
C742        C743   1.411       .  A
C743        C744   1.419   1_455  A
C743        C746   1.447       .  S
C744        C747   1.448       .  S
C745        N752   1.157       .  T
C746        N751   1.157       .  T
C747        N749   1.157       .  T
C748        N750   1.157       .  T
C753        C754   1.426       .  A
C753        C758   1.422   1_556  A
C754        C755   1.417   1_556  A
C754        C759   1.450       .  S
C755        C756   1.404       .  A
C755        C762   1.447       .  S
C756        C757   1.406       .  A
C757        C758   1.413       .  A
C757        C760   1.451       .  S
C758        C761   1.446       .  S
C759        N766   1.158       .  T
C760        N765   1.157       .  T
C761        N763   1.155       .  T
C762        N764   1.156       .  T
C767        C768   1.411       .  A
C767        C772   1.406       .  A
C768        C769   1.403   1_545  A
C768        C773   1.451       .  S
C769        C770   1.409       .  A
C769        C776   1.452       .  S
C770        C771   1.413       .  A
C771        C772   1.410   1_565  A
C771        C774   1.445       .  S
C772        C775   1.451       .  S
C773        N780   1.157       .  T
C774        N779   1.155       .  T
C775        N777   1.157       .  T
C776        N778   1.157       .  T
C781        C782   1.407       .  A
C781        C786   1.408       .  A
C782        C783   1.417   1_556  A
C782        C787   1.447       .  S
C783        C784   1.422       .  A
C783        C790   1.449       .  S
C784        C785   1.419   1_554  A
C785        C786   1.418       .  A
C785        C788   1.449       .  S
C786        C789   1.449       .  S
C787        N794   1.157       .  T
C788        N793   1.157       .  T
C789        N791   1.158       .  T
C790        N792   1.157       .  T
C795        C796   1.412   1_556  A
C795        C800   1.415       .  A
C796        C797   1.417       .  A
C796        C801   1.450       .  S
C797        C798   1.419       .  A
C797        C804   1.451       .  S
C798        C799   1.409       .  A
C799        C800   1.413   1_554  A
C799        C802   1.447   1_554  S
C800        C803   1.448       .  S
C801        N808   1.157       .  T
C802        N807   1.156       .  T
C803        N805   1.156       .  T
C804        N806   1.157       .  T
C809        C810   1.417       .  A
C809        C814   1.418       .  A
C810        C811   1.399       .  A
C810        C815   1.455       .  S
C811        C812   1.417       .  A
C811        C818   1.456       .  S
C812        C813   1.417       .  A
C813        C814   1.419       .  A
C813        C816   1.450       .  S
C814        C817   1.449       .  S
C815        N822   1.157       .  T
C816        N821   1.158       .  T
C817        N819   1.157       .  T
C818        N820   1.157       .  T
C823        C824   1.411       .  A
C823        C828   1.410       .  A
C824        C825   1.416       .  A
C824        C829   1.449       .  S
C825        C826   1.411       .  A
C825        C832   1.447       .  S
C826        C827   1.411       .  A
C827        C828   1.408       .  A
C827        C830   1.451       .  S
C828        C831   1.452       .  S
C829        N836   1.157       .  T
C830        N835   1.157       .  T
C831        N833   1.157       .  T
C832        N834   1.157       .  T
C837        C838   1.413       .  A
C837        C842   1.414       .  A
C838        C839   1.395   1_556  A
C838        C843   1.457       .  S
C839        C840   1.424       .  A
C839        C846   1.459       .  S
C840        C841   1.418       .  A
C841        C842   1.424   1_554  A
C841        C844   1.447       .  S
C842        C845   1.448       .  S
C843        N850   1.158       .  T
C844        N849   1.157       .  T
C845        N847   1.157       .  T
C846        N848   1.157       .  T
C851        C852   1.421       .  A
C851        C856   1.421       .  A
C852        C853   1.418       .  A
C852        C857   1.448       .  S
C853        C854   1.408       .  A
C853        C860   1.446       .  S
C854        C855   1.409       .  A
C855        C856   1.412       .  A
C855        C858   1.449       .  S
C856        C859   1.451       .  S
C857        N864   1.157       .  T
C858        N863   1.157       .  T
C859        N861   1.157       .  T
C860        N862   1.158       .  T
C865        C866   1.408       .  A
C865        C870   1.399       .  A
C866        C867   1.422       .  A
C866        C871   1.448       .  S
C867        C868   1.423       .  A
C867        C874   1.443       .  S
C868        C869   1.415       .  A
C869        C870   1.397       .  A
C869        C872   1.446       .  S
C870        C873   1.445       .  S
C871        N878   1.157       .  T
C872        N877   1.156       .  T
C873        N875   1.156       .  T
C874        N876   1.156       .  T
C879        C880   1.411       .  A
C879        C884   1.410       .  A
C880        C881   1.409       .  A
C880        C885   1.451       .  S
C881        C882   1.411       .  A
C881        C888   1.452       .  S
C882        C883   1.412       .  A
C883        C884   1.416       .  A
C883        C886   1.448       .  S
C884        C887   1.449       .  S
C885        N892   1.157       .  T
C886        N891   1.157       .  T
C887        N889   1.157       .  T
C888        N890   1.157       .  T
C893        C894   1.420       .  A
C893        C898   1.413   1_554  A
C894        C895   1.423   1_554  A
C894        C899   1.447       .  S
C895        C896   1.407       .  A
C895        C902   1.445       .  S
C896        C897   1.407       .  A
C897        C898   1.413       .  A
C897        C900   1.441       .  S
C898        C901   1.448       .  S
C899        N906   1.157       .  T
C900        N905   1.154       .  T
C901        N903   1.156       .  T
C902        N904   1.157   1_556  T
C907        C908   1.410       .  A
C907        C912   1.410       .  A
C908        C909   1.407   1_556  A
C908        C913   1.448       .  S
C909        C910   1.409       .  A
C909        C916   1.446       .  S
C910        C911   1.414       .  A
C911        C912   1.421   1_554  A
C911        C914   1.445       .  S
C912        C915   1.447       .  S
C913        N920   1.157       .  T
C914        N919   1.157       .  T
C915        N917   1.157       .  T
C916        N918   1.155       .  T
C921        C922   1.411       .  A
C921        C926   1.413       .  A
C922        C923   1.411       .  A
C922        C927   1.451       .  S
C923        C924   1.423       .  A
C923        C930   1.453       .  S
C924        C925   1.425       .  A
C925        C926   1.421       .  A
C925        C928   1.450       .  S
C926        C929   1.450       .  S
C927        N934   1.157       .  T
C928        N933   1.158       .  T
C929        N931   1.158       .  T
C930        N932   1.158       .  T
C935        C936   1.412       .  A
C935        C940   1.414       .  A
C936        C937   1.403       .  A
C936        C941   1.455       .  S
C937        C938   1.416       .  A
C937        C944   1.453       .  S
C938        C939   1.417       .  A
C939        C940   1.423       .  A
C939        C942   1.447       .  S
C940        C943   1.449       .  S
C941        N948   1.157       .  T
C942        N947   1.157       .  T
C943        N945   1.158       .  T
C944        N946   1.157       .  T
C949        C950   1.416       .  A
C949        C954   1.418       .  A
C950        C951   1.406       .  A
C950        C955   1.448       .  S
C951        C952   1.401       .  A
C951        C958   1.448       .  S
C952        C953   1.414       .  A
C953        C954   1.416       .  A
C953        C956   1.451       .  S
C954        C957   1.450       .  S
C955        N962   1.156       .  T
C956        N961   1.158       .  T
C957        N959   1.158       .  T
C958        N960   1.157       .  T
C963        C964   1.413       .  A
C963        C968   1.414       .  A
C964        C965   1.413       .  A
C964        C969   1.451       .  S
C965        C966   1.418       .  A
C965        C972   1.450       .  S
C966        C967   1.412       .  A
C967        C968   1.412       .  A
C967        C970   1.450       .  S
C968        C971   1.450       .  S
C969        N976   1.157       .  T
C970        N975   1.157       .  T
C971        N973   1.157       .  T
C972        N974   1.158       .  T
C977        C978   1.421       .  A
C977        C982   1.414       .  A
C978        C979   1.403       .  A
C978        C983   1.453       .  S
C979        C980   1.412       .  A
C979        C986   1.454       .  S
C980        C981   1.419       .  A
C981        C982   1.422       .  A
C981        C984   1.449       .  S
C982        C985   1.446       .  S
C983        N990   1.157       .  T
C984        N989   1.157       .  T
C985        N987   1.156       .  T
C986        N988   1.157       .  T
C991        C992   1.417       .  A
C991        C996   1.416       .  A
C992        C993   1.418       .  A
C992        C997   1.451       .  S
C993        C994   1.420       .  A
C993       C1000   1.451       .  S
C994        C995   1.421       .  A
C995        C996   1.417       .  A
C995        C998   1.452       .  S
C996        C999   1.452       .  S
C997       N1004   1.157       .  T
C998       N1003   1.157       .  T
C999       N1001   1.158       .  T
C1000      N1002   1.158       .  T
C1005      C1006   1.413       .  A
C1005      C1010   1.408       .  A
C1006      C1007   1.411       .  A
C1006      C1011   1.450       .  S
C1007      C1008   1.409       .  A
C1007      C1014   1.447       .  S
C1008      C1009   1.412       .  A
C1009      C1010   1.417       .  A
C1009      C1012   1.443       .  S
C1010      C1013   1.446       .  S
C1011      N1018   1.157       .  T
C1012      N1017   1.156       .  T
C1013      N1015   1.157       .  T
C1014      N1016   1.156       .  T
C1019      C1020   1.409       .  A
C1019      C1024   1.411       .  A
C1020      C1021   1.411       .  A
C1020      C1025   1.447       .  S
C1021      C1022   1.415       .  A
C1021      C1028   1.452       .  S
C1022      C1023   1.409       .  A
C1023      C1024   1.409       .  A
C1023      C1026   1.448       .  S
C1024      C1027   1.450       .  S
C1025      N1032   1.156       .  T
C1026      N1031   1.157       .  T
C1027      N1029   1.157       .  T
C1028      N1030   1.157       .  T
C1033      C1034   1.417       .  A
C1033      C1038   1.418       .  A
C1034      C1035   1.414       .  A
C1034      C1039   1.449       .  S
C1035      C1036   1.412       .  A
C1035      C1042   1.451       .  S
C1036      C1037   1.414       .  A
C1037      C1038   1.412       .  A
C1037      C1040   1.451       .  S
C1038      C1041   1.452       .  S
C1039      N1046   1.157       .  T
C1040      N1045   1.157       .  T
C1041      N1043   1.157       .  T
C1042      N1044   1.157       .  T
C1047      C1048   1.420       .  A
C1047      C1052   1.413       .  A
C1048      C1049   1.421       .  A
C1048      C1053   1.449       .  S
C1049      C1050   1.411       .  A
C1049      C1056   1.448       .  S
C1050      C1051   1.410       .  A
C1051      C1052   1.400       .  A
C1051      C1054   1.450       .  S
C1052      C1055   1.451       .  S
C1053      N1060   1.158       .  T
C1054      N1059   1.157       .  T
C1055      N1057   1.156       .  T
C1056      N1058   1.156       .  T
C1061      C1062   1.414       .  A
C1061      C1066   1.417       .  A
C1062      C1063   1.421       .  A
C1062      C1067   1.448       .  S
C1063      C1064   1.413       .  A
C1063      C1070   1.449       .  S
C1064      C1065   1.407       .  A
C1065      C1066   1.401       .  A
C1065      C1068   1.455       .  S
C1066      C1069   1.451       .  S
C1067      N1074   1.157       .  T
C1068      N1073   1.157       .  T
C1069      N1071   1.156       .  T
C1070      N1072   1.157       .  T
C1075      C1076   1.419       .  A
C1075      C1080   1.412       .  A
C1076      C1077   1.410       .  A
C1076      C1081   1.451       .  S
C1077      C1078   1.412       .  A
C1077      C1084   1.454       .  S
C1078      C1079   1.418       .  A
C1079      C1080   1.414       .  A
C1079      C1082   1.449       .  S
C1080      C1083   1.452       .  S
C1081      N1088   1.158       .  T
C1082      N1087   1.158       .  T
C1083      N1085   1.157       .  T
C1084      N1086   1.157       .  T
C1089      C1090   1.415       .  A
C1089      C1094   1.410       .  A
C1090      C1091   1.425       .  A
C1090      C1095   1.446       .  S
C1091      C1092   1.416       .  A
C1091      C1098   1.449       .  S
C1092      C1093   1.409       .  A
C1093      C1094   1.400       .  A
C1093      C1096   1.447       .  S
C1094      C1097   1.449       .  S
C1095      N1102   1.157       .  T
C1096      N1101   1.156       .  T
C1097      N1099   1.156       .  T
C1098      N1100   1.157       .  T
C1103      C1104   1.426       .  A
C1103      C1108   1.421       .  A
C1104      C1105   1.411       .  A
C1104      C1109   1.456       .  S
C1105      C1106   1.424       .  A
C1105      C1112   1.456       .  S
C1106      C1107   1.421       .  A
C1107      C1108   1.423       .  A
C1107      C1110   1.450       .  S
C1108      C1111   1.450       .  S
C1109      N1116   1.157       .  T
C1110      N1115   1.157       .  T
C1111      N1113   1.158       .  T
C1112      N1114   1.158       .  T
C1117      C1118   1.409       .  A
C1117      C1122   1.406       .  A
C1118      C1119   1.413       .  A
C1118      C1123   1.452       .  S
C1119      C1120   1.416       .  A
C1119      C1126   1.448       .  S
C1120      C1121   1.422       .  A
C1121      C1122   1.414       .  A
C1121      C1124   1.452       .  S
C1122      C1125   1.449       .  S
C1123      N1130   1.157       .  T
C1124      N1129   1.157       .  T
C1125      N1127   1.157       .  T
C1126      N1128   1.157       .  T
C1131      C1132   1.421       .  A
C1131      C1136   1.424       .  A
C1132      C1133   1.421       .  A
C1132      C1137   1.452       .  S
C1133      C1134   1.422       .  A
C1133      C1140   1.451       .  S
C1134      C1135   1.419       .  A
C1135      C1136   1.419       .  A
C1135      C1138   1.454       .  S
C1136      C1139   1.452       .  S
C1137      N1144   1.157       .  T
C1138      N1143   1.157       .  T
C1139      N1141   1.158       .  T
C1140      N1142   1.158       .  T
C1145      C1146   1.420       .  A
C1145      C1150   1.416       .  A
C1146      C1147   1.436       .  A
C1146      C1151   1.447       .  S
C1147      C1148   1.422       .  A
C1147      C1154   1.448       .  S
C1148      C1149   1.421       .  A
C1149      C1150   1.410       .  A
C1149      C1152   1.455       .  S
C1150      C1153   1.450       .  S
C1151      N1158   1.157       .  T
C1152      N1157   1.157       .  T
C1153      N1155   1.155       .  T
C1154      N1156   1.157       .  T
C1159      C1160   1.411       .  A
C1159      C1164   1.412       .  A
C1160      C1161   1.399       .  A
C1160      C1165   1.445       .  S
C1161      C1162   1.404       .  A
C1161      C1168   1.450       .  S
C1162      C1163   1.410       .  A
C1163      C1164   1.418       .  A
C1163      C1166   1.445       .  S
C1164      C1167   1.446       .  S
C1165      N1172   1.154       .  T
C1166      N1171   1.157       .  T
C1167      N1169   1.157       .  T
C1168      N1170   1.156       .  T
C1173      C1174   1.410       .  A
C1173      C1178   1.413       .  A
C1174      C1175   1.409       .  A
C1174      C1179   1.449       .  S
C1175      C1176   1.410       .  A
C1175      C1182   1.449       .  S
C1176      C1177   1.411       .  A
C1177      C1178   1.416       .  A
C1177      C1180   1.449       .  S
C1178      C1181   1.448       .  S
C1179      N1186   1.157       .  T
C1180      N1185   1.157       .  T
C1181      N1183   1.157       .  T
C1182      N1184   1.157       .  T
C1187      C1188   1.427       .  A
C1187      C1192   1.425       .  A
C1188      C1189   1.403       .  A
C1188      C1193   1.453       .  S
C1189      C1190   1.408       .  A
C1189      C1196   1.454       .  S
C1190      C1191   1.410       .  A
C1191      C1192   1.423       .  A
C1191      C1194   1.448       .  S
C1192      C1195   1.448       .  S
C1193      N1200   1.157       .  T
C1194      N1199   1.157       .  T
C1195      N1197   1.158       .  T
C1196      N1198   1.156       .  T
C1201      C1202   1.416       .  A
C1201      C1206   1.419       .  A
C1202      C1203   1.415       .  A
C1202      C1207   1.451       .  S
C1203      C1204   1.417       .  A
C1203      C1210   1.451       .  S
C1204      C1205   1.415       .  A
C1205      C1206   1.414       .  A
C1205      C1208   1.453       .  S
C1206      C1209   1.451       .  S
C1207      N1214   1.157       .  T
C1208      N1213   1.157       .  T
C1209      N1211   1.157       .  T
C1210      N1212   1.158       .  T
C1215      C1216   1.413       .  A
C1215      C1220   1.410       .  A
C1216      C1217   1.426       .  A
C1216      C1221   1.447       .  S
C1217      C1218   1.417       .  A
C1217      C1224   1.448       .  S
C1218      C1219   1.417       .  A
C1219      C1220   1.413       .  A
C1219      C1222   1.450       .  S
C1220      C1223   1.452       .  S
C1221      N1228   1.157       .  T
C1222      N1227   1.156       .  T
C1223      N1225   1.157       .  T
C1224      N1226   1.157       .  T
C1229      C1230   1.415       .  A
C1229      C1234   1.409       .  A
C1230      C1231   1.417       .  A
C1230      C1235   1.449       .  S
C1231      C1232   1.415       .  A
C1231      C1238   1.449       .  S
C1232      C1233   1.414       .  A
C1233      C1234   1.409       .  A
C1233      C1236   1.449       .  S
C1234      C1237   1.451       .  S
C1235      N1242   1.157       .  T
C1236      N1241   1.156       .  T
C1237      N1239   1.157       .  T
C1238      N1240   1.157       .  T
C1243      C1244   1.416       .  A
C1243      C1248   1.414       .  A
C1244      C1245   1.413   1_565  A
C1244      C1249   1.450       .  S
C1245      C1246   1.410       .  A
C1245      C1252   1.451       .  S
C1246      C1247   1.411       .  A
C1247      C1248   1.407   1_545  A
C1247      C1250   1.452       .  S
C1248      C1251   1.452       .  S
C1249      N1256   1.158       .  T
C1250      N1255   1.158       .  T
C1251      N1253   1.157       .  T
C1252      N1254   1.157       .  T
C1257      C1258   1.418       .  A
C1257      C1262   1.414       .  A
C1258      C1259   1.427       .  A
C1258      C1263   1.449       .  S
C1259      C1260   1.421       .  A
C1259      C1266   1.449       .  S
C1260      C1261   1.428       .  A
C1261      C1262   1.407       .  A
C1261      C1264   1.456       .  S
C1262      C1265   1.456       .  S
C1263      N1270   1.157       .  T
C1264      N1269   1.158       .  T
C1265      N1267   1.157       .  T
C1266      N1268   1.157       .  T
C1271      C1272   1.414       .  A
C1271      C1276   1.415       .  A
C1272      C1273   1.410       .  A
C1272      C1277   1.451       .  S
C1273      C1274   1.412       .  A
C1273      C1280   1.450       .  S
C1274      C1275   1.415       .  A
C1275      C1276   1.413       .  A
C1275      C1278   1.451       .  S
C1276      C1279   1.452       .  S
C1277      N1284   1.157       .  T
C1278      N1283   1.158       .  T
C1279      N1281   1.157       .  T
C1280      N1282   1.157       .  T
C1285      C1286   1.411       .  A
C1285      C1290   1.411       .  A
C1286      C1287   1.408   1_455  A
C1286      C1291   1.452       .  S
C1287      C1288   1.412       .  A
C1287      C1294   1.450       .  S
C1288      C1289   1.414       .  A
C1289      C1290   1.417   1_655  A
C1289      C1292   1.447       .  S
C1290      C1293   1.450       .  S
C1291      N1298   1.157       .  T
C1292      N1297   1.157       .  T
C1293      N1295   1.157       .  T
C1294      N1296   1.157       .  T
C1299      C1300   1.411       .  A
C1299      C1304   1.406       .  A
C1300      C1301   1.417       .  A
C1300      C1305   1.449       .  S
C1301      C1302   1.412       .  A
C1301      C1308   1.447       .  S
C1302      C1303   1.414       .  A
C1303      C1304   1.396       .  A
C1303      C1306   1.454       .  S
C1304      C1307   1.453       .  S
C1305      N1312   1.157       .  T
C1306      N1311   1.157       .  T
C1307      N1309   1.157       .  T
C1308      N1310   1.157       .  T
C1313      C1314   1.414       .  A
C1313      C1318   1.416       .  A
C1314      C1315   1.406       .  A
C1314      C1319   1.451       .  S
C1315      C1316   1.408       .  A
C1315      C1322   1.448       .  S
C1316      C1317   1.413       .  A
C1317      C1318   1.415       .  A
C1317      C1320   1.448       .  S
C1318      C1321   1.449       .  S
C1319      N1326   1.157       .  T
C1320      N1325   1.158       .  T
C1321      N1323   1.157       .  T
C1322      N1324   1.157       .  T
C1327      C1328   1.418       .  A
C1327      C1332   1.417       .  A
C1328      C1329   1.412       .  A
C1328      C1333   1.453       .  S
C1329      C1330   1.420       .  A
C1329      C1336   1.453       .  S
C1330      C1331   1.421       .  A
C1331      C1332   1.418       .  A
C1331      C1334   1.451       .  S
C1332      C1335   1.452       .  S
C1333      N1340   1.158       .  T
C1334      N1339   1.158       .  T
C1335      N1337   1.157       .  T
C1336      N1338   1.157       .  T
C1341      C1342   1.409       .  A
C1341      C1346   1.413       .  A
C1342      C1343   1.411   1_565  A
C1342      C1347   1.451       .  S
C1343      C1344   1.415       .  A
C1343      C1350   1.449       .  S
C1344      C1345   1.414       .  A
C1345      C1346   1.421   1_545  A
C1345      C1348   1.445       .  S
C1346      C1349   1.448       .  S
C1347      N1354   1.156       .  T
C1348      N1353   1.156       .  T
C1349      N1351   1.157       .  T
C1350      N1352   1.157       .  T
C1355      C1356   1.411       .  A
C1355      C1360   1.412       .  A
C1356      C1357   1.414       .  A
C1356      C1361   1.445       .  S
C1357      C1358   1.412       .  A
C1357      C1364   1.448       .  S
C1358      C1359   1.419       .  A
C1359      C1360   1.419       .  A
C1359      C1362   1.451       .  S
C1360      C1363   1.449       .  S
C1361      N1368   1.155       .  T
C1362      N1367   1.156       .  T
C1363      N1365   1.158       .  T
C1364      N1366   1.157       .  T
C1369      C1370   1.419       .  A
C1369      C1374   1.412       .  A
C1370      C1371   1.399       .  A
C1370      C1375   1.456       .  S
C1371      C1372   1.413       .  A
C1371      C1378   1.457       .  S
C1372      C1373   1.413       .  A
C1373      C1374   1.416       .  A
C1373      C1376   1.449       .  S
C1374      C1377   1.449       .  S
C1375      N1382   1.158       .  T
C1376      N1381   1.158       .  T
C1377      N1379   1.157       .  T
C1378      N1380   1.157       .  T
C1383      C1384   1.417       .  A
C1383      C1388   1.419       .  A
C1384      C1385   1.415       .  A
C1384      C1389   1.451       .  S
C1385      C1386   1.417       .  A
C1385      C1392   1.451       .  S
C1386      C1387   1.415       .  A
C1387      C1388   1.414       .  A
C1387      C1390   1.453       .  S
C1388      C1391   1.451       .  S
C1389      N1396   1.157       .  T
C1390      N1395   1.157       .  T
C1391      N1393   1.158       .  T
C1392      N1394   1.158       .  T
C1397      C1398   1.410       .  A
C1397      C1402   1.411       .  A
C1398      C1399   1.412   1_455  A
C1398      C1403   1.452       .  S
C1399      C1400   1.416       .  A
C1399      C1406   1.450       .  S
C1400      C1401   1.411       .  A
C1401      C1402   1.417   1_655  A
C1401      C1404   1.447       .  S
C1402      C1405   1.448       .  S
C1403      N1410   1.157       .  T
C1404      N1409   1.157       .  T
C1405      N1407   1.157       .  T
C1406      N1408   1.157       .  T
C1411      C1412   1.412       .  A
C1411      C1416   1.412       .  A
C1412      C1413   1.416       .  A
C1412      C1417   1.446       .  S
C1413      C1414   1.412       .  A
C1413      C1420   1.449       .  S
C1414      C1415   1.409       .  A
C1415      C1416   1.406       .  A
C1415      C1418   1.452       .  S
C1416      C1419   1.447       .  S
C1417      N1424   1.157       .  T
C1418      N1423   1.157       .  T
C1419      N1421   1.155       .  T
C1420      N1422   1.157       .  T
C1425      C1426   1.416       .  A
C1425      C1430   1.414       .  A
C1426      C1427   1.419       .  A
C1426      C1431   1.450       .  S
C1427      C1428   1.412       .  A
C1427      C1434   1.449       .  S
C1428      C1429   1.412       .  A
C1429      C1430   1.415       .  A
C1429      C1432   1.450       .  S
C1430      C1433   1.449       .  S
C1431      N1438   1.158       .  T
C1432      N1437   1.157       .  T
C1433      N1435   1.156       .  T
C1434      N1436   1.157       .  T
C1439      C1440   1.417       .  A
C1439      C1444   1.408       .  A
C1440      C1441   1.419       .  A
C1440      C1445   1.450       .  S
C1441      C1442   1.411       .  A
C1441      C1448   1.447       .  S
C1442      C1443   1.409       .  A
C1443      C1444   1.403       .  A
C1443      C1446   1.446       .  S
C1444      C1447   1.451       .  S
C1445      N1452   1.157       .  T
C1446      N1451   1.156       .  T
C1447      N1449   1.157       .  T
C1448      N1450   1.157       .  T
C1453      C1454   1.414       .  A
C1453      C1458   1.418       .  A
C1454      C1455   1.413       .  A
C1454      C1459   1.453       .  S
C1455      C1456   1.425       .  A
C1455      C1462   1.453       .  S
C1456      C1457   1.422       .  A
C1457      C1458   1.421       .  A
C1457      C1460   1.451       .  S
C1458      C1461   1.451       .  S
C1459      N1466   1.156       .  T
C1460      N1465   1.157       .  T
C1461      N1463   1.158       .  T
C1462      N1464   1.158       .  T
C1467      C1468   1.411       .  A
C1467      C1472   1.411       .  A
C1468      C1469   1.412       .  A
C1468      C1473   1.447       .  S
C1469      C1470   1.408       .  A
C1469      C1476   1.447       .  S
C1470      C1471   1.408       .  A
C1471      C1472   1.409       .  A
C1471      C1474   1.450       .  S
C1472      C1475   1.450       .  S
C1473      N1480   1.157       .  T
C1474      N1479   1.157       .  T
C1475      N1477   1.157       .  T
C1476      N1478   1.156       .  T
C1481      C1482   1.421       .  A
C1481      C1486   1.421       .  A
C1482      C1483   1.405       .  A
C1482      C1487   1.456       .  S
C1483      C1484   1.413       .  A
C1483      C1490   1.452       .  S
C1484      C1485   1.412       .  A
C1485      C1486   1.426       .  A
C1485      C1488   1.447       .  S
C1486      C1489   1.447       .  S
C1487      N1494   1.158       .  T
C1488      N1493   1.157       .  T
C1489      N1491   1.157       .  T
C1490      N1492   1.156       .  T
C1495      C1496   1.411       .  A
C1495      C1500   1.410       .  A
C1496      C1497   1.404       .  A
C1496      C1501   1.450       .  S
C1497      C1498   1.408       .  A
C1497      C1504   1.447       .  S
C1498      C1499   1.409       .  A
C1499      C1500   1.415       .  A
C1499      C1502   1.445       .  S
C1500      C1503   1.446       .  S
C1501      N1508   1.157       .  T
C1502      N1507   1.156       .  T
C1503      N1505   1.157       .  T
C1504      N1506   1.156       .  T
C1509      C1510   1.408       .  A
C1509      C1514   1.407       .  A
C1510      C1511   1.414       .  A
C1510      C1515   1.447       .  S
C1511      C1512   1.416       .  A
C1511      C1518   1.447       .  S
C1512      C1513   1.416       .  A
C1513      C1514   1.406       .  A
C1513      C1516   1.447       .  S
C1514      C1517   1.452       .  S
C1515      N1522   1.157       .  T
C1516      N1521   1.156       .  T
C1517      N1519   1.157       .  T
C1518      N1520   1.158       .  T
C1523      C1524   1.423       .  A
C1523      C1528   1.424       .  A
C1524      C1525   1.421       .  A
C1524      C1529   1.450       .  S
C1525      C1526   1.416       .  A
C1525      C1532   1.450       .  S
C1526      C1527   1.412       .  A
C1527      C1528   1.403       .  A
C1527      C1530   1.451       .  S
C1528      C1531   1.457       .  S
C1529      N1536   1.158       .  T
C1530      N1535   1.155       .  T
C1531      N1533   1.158       .  T
C1532      N1534   1.157       .  T
