geometry optimzed in LAMMPS
_audit_creation_date              2020-12-01 
_audit_creation_method            'lammps2cif' 
_symmetry_space_group_name_H-M    'P1' 
_symmetry_Int_Tables_number       1 
_symmetry_cell_setting            triclinic 
loop_ 
_symmetry_equiv_pos_as_xyz 
  x,y,z 
_cell_length_a                    36.68471814 
_cell_length_b                    36.64987628211065 
_cell_length_c                    43.67732989397666 
_cell_angle_alpha                 90.04865426462442 
_cell_angle_beta                  89.93819127334592 
_cell_angle_gamma                 89.75529362734491 
loop_ 
_atom_site_label 
_atom_site_type_symbol 
_atom_site_fract_x 
_atom_site_fract_y 
_atom_site_fract_z 
_atom_site_charge 
Fe1        Fe  0.53521191  0.73730426  0.48795616     1.65800
Fe2        Fe  0.56655270  0.66137098  0.45372308     1.73200
Fe3        Fe  0.62045420  0.70615975  0.00317960     1.54400
O4          O  0.62670410  0.75975658  0.99049670    -0.80500
O5          O  0.59979202  0.62481218  0.47705793    -0.78800
O6          O  0.57032221  0.78168404  0.49561292    -0.83000
O7          O  0.53556192  0.72790990  0.03362177    -0.77900
O8          O  0.65067302  0.68946833  0.46422910    -0.79700
O9          O  0.52308204  0.64375303  0.47895881    -0.82400
C10         C  0.56169589  0.72671159  0.05247896     0.98300
C11         C  0.60481150  0.78572747  0.49624961     1.05800
O12         O  0.57433772  0.70190597  0.48165260    -1.11400
O13         O  0.53166168  0.69075316  0.42592525    -0.73800
O14         O  0.53161685  0.74849230  0.44164829    -0.77300
O15         O  0.59484849  0.72184856  0.04430582    -0.78000
C16         C  0.52340380  0.72410344  0.42218601     0.97300
O17         O  0.49458735  0.69734534  0.98466537    -0.76000
O18         O  0.60990138  0.67760700  0.42748784    -0.81200
C19         C  0.61533603  0.62476982  0.00298520     0.99900
C20         C  0.64258075  0.68140106  0.43649949     1.05800
O21         O  0.61854654  0.65353657  0.01871196    -0.76800
C22         C  0.49519334  0.66255186  0.48592808     1.04100
Fe23       Fe  0.77043876  0.50071144  0.28942831     1.65800
Fe24       Fe  0.69330954  0.53101568  0.32175129     1.73200
Fe25       Fe  0.74001286  0.58700797  0.27550325     1.54400
O26         O  0.79365486  0.59178475  0.28794254    -0.80500
O27         O  0.65787927  0.56690540  0.30020064    -0.78800
O28         O  0.81555953  0.53525360  0.28402584    -0.83000
O29         O  0.76367963  0.50281675  0.24333139    -0.77900
O30         O  0.72495762  0.61510776  0.31609789    -0.79700
O31         O  0.67654849  0.49004976  0.29330271    -0.82400
C32         C  0.76000558  0.52920419  0.22483917     0.98300
C33         C  0.81965868  0.56972097  0.28318858     1.05800
O34         O  0.73495945  0.53998980  0.29543247    -1.11400
O35         O  0.72062348  0.49344533  0.34877528    -0.73800
O36         O  0.77919020  0.49564863  0.33610821    -0.77300
O37         O  0.75393795  0.56212076  0.23345665    -0.78000
C38         C  0.75381642  0.48616183  0.35422289     0.97300
O39         O  0.72968744  0.46049179  0.29062176    -0.76000
O40         O  0.70941143  0.57220459  0.35029414    -0.81200
C41         C  0.65858796  0.58542606  0.27577084     0.99900
C42         C  0.71580473  0.60526363  0.34325541     1.05800
O43         O  0.68732014  0.58857827  0.26008075    -0.76800
C44         C  0.69506448  0.46160124  0.28727044     1.04100
Fe45       Fe  0.53446636  0.22028384  0.23545329     1.65800
Fe46       Fe  0.56532193  0.29640161  0.20228433     1.73200
Fe47       Fe  0.62014697  0.25023337  0.25020079     1.54400
O48         O  0.59474547  0.23579069  0.29170864    -0.80500
O49         O  0.60739331  0.27929666  0.17489840    -0.78800
O50         O  0.53536205  0.22853583  0.28132436    -0.83000
O51         O  0.56934622  0.17514432  0.24232498    -0.77900
O52         O  0.62039378  0.30313346  0.26555071    -0.79700
O53         O  0.52893813  0.26834107  0.17486502    -0.82400
C54         C  0.60383284  0.17068985  0.24253456     0.98300
C55         C  0.56165877  0.23074998  0.29999935     1.05800
O56         O  0.57362717  0.25539069  0.22950523    -1.11400
O57         O  0.52321636  0.31416702  0.22924668    -0.73800
O58         O  0.49393004  0.26117995  0.23262227    -0.77300
O59         O  0.62567407  0.19660290  0.23744646    -0.78000
C60         C  0.49467310  0.29598195  0.23507131     0.97300
O61         O  0.53088771  0.21010906  0.18894097    -0.76000
O62         O  0.60022450  0.33220621  0.22453658    -0.81200
C63         C  0.64019780  0.27351936  0.18298869     0.99900
C64         C  0.61757030  0.33178480  0.24962262     1.05800
O65         O  0.64917932  0.26532404  0.21049288    -0.76800
C66         C  0.52202053  0.23494643  0.17007259     1.04100
Fe67       Fe  0.76550937  0.45560506  0.03990353     1.65800
Fe68       Fe  0.68970594  0.42152416  0.07110184     1.73200
Fe69       Fe  0.73950895  0.36874549  0.02399061     1.54400
O70         O  0.75593801  0.39469494  0.48336883    -0.80500
O71         O  0.70666287  0.37926247  0.09807779    -0.78800
O72         O  0.75904264  0.45454032  0.49355681    -0.83000
O73         O  0.81151689  0.42263078  0.03426702    -0.77900
O74         O  0.68761522  0.36770517  0.00631015    -0.79700
O75         O  0.71561662  0.45783243  0.10015319    -0.82400
C76         C  0.81743911  0.38845620  0.03481945     0.98300
C77         C  0.75953998  0.42791283  0.47496410     1.05800
O78         O  0.73181679  0.41503608  0.04482822    -1.11400
O79         O  0.67147764  0.46375010  0.04469108    -0.73800
O80         O  0.72368774  0.49446668  0.04242557    -0.77300
O81         O  0.79238783  0.36534507  0.03920898    -0.78000
C82         C  0.68909552  0.49283719  0.03986657     0.97300
O83         O  0.77398375  0.45946186  0.08663433    -0.76000
O84         O  0.65631329  0.38687655  0.04660310    -0.81200
C85         C  0.71328434  0.34665508  0.08985258     0.99900
C86         C  0.65790912  0.37115693  0.02077905     1.05800
O87         O  0.72271152  0.33822635  0.06250113    -0.76800
C88         C  0.74840565  0.46688257  0.10530093     1.04100
Fe89       Fe  0.48794897  0.22309332  0.48398668     1.65800
Fe90       Fe  0.45420036  0.29952771  0.45299357     1.73200
Fe91       Fe  0.40245159  0.25204929  0.00191983     1.54400
O92         O  0.39725174  0.19907950  0.98751989    -0.80500
O93         O  0.42043922  0.33436064  0.47746774    -0.78800
O94         O  0.45396516  0.17782644  0.49144751    -0.83000
O95         O  0.48894388  0.23043916  0.03010565    -0.77900
O96         O  0.37097392  0.26921894  0.46387155    -0.79700
O97         O  0.49727978  0.31697970  0.47848761    -0.82400
C98         C  0.46321962  0.23065348  0.04950915     0.98300
C99         C  0.41955991  0.17334718  0.49257455     1.05800
O100        O  0.44794722  0.25795513  0.47979544    -1.11400
O101        O  0.48956943  0.27245735  0.42393361    -0.73800
O102        O  0.49019180  0.21398179  0.43726431    -0.77300
O103        O  0.42979066  0.23545884  0.04203650    -0.78000
C104        C  0.49833151  0.23950795  0.41882501     0.97300
O105        O  0.52753989  0.26409703  0.98010227    -0.76000
O106        O  0.41109433  0.28281441  0.42697111    -0.81200
C107        C  0.40534673  0.33338806  0.00355173     0.99900
C108        C  0.37863775  0.27778624  0.43615425     1.05800
O109        O  0.40301523  0.30423403  0.01887584    -0.76800
C110        C  0.52632392  0.29880706  0.48272169     1.04100
Fe111      Fe  0.25641045  0.46098441  0.29039515     1.65800
Fe112      Fe  0.33258550  0.42759976  0.32169153     1.73200
Fe113      Fe  0.28255018  0.37362396  0.27616324     1.54400
O114        O  0.22973411  0.37137856  0.29134651    -0.80500
O115        O  0.36636572  0.39175550  0.29810084    -0.78800
O116        O  0.21029859  0.42813982  0.28403383    -0.83000
O117        O  0.26406241  0.45921494  0.24440143    -0.77900
O118        O  0.29828818  0.34446074  0.31578987    -0.79700
O119        O  0.35012054  0.46905169  0.29400667    -0.82400
C120        C  0.26332163  0.43242049  0.22601216     0.98300
C121        C  0.20463145  0.39396922  0.28534163     1.05800
O122        O  0.29038348  0.42040203  0.29587922    -1.11400
O123        O  0.30612848  0.46474838  0.34984215    -0.73800
O124        O  0.24746984  0.46519080  0.33704346    -0.77300
O125        O  0.26679815  0.39915637  0.23472394    -0.78000
C126        C  0.27316139  0.47324885  0.35533600     0.97300
O127        O  0.29783271  0.50014803  0.29308584    -0.77600
O128        O  0.31607483  0.38631096  0.35000698    -0.81200
C129        C  0.36435626  0.37366545  0.27339212     0.99900
C130        C  0.30808760  0.35368643  0.34286813     1.05800
O131        O  0.33466766  0.37016780  0.25897862    -0.76800
C132        C  0.33234181  0.49834810  0.28971304     1.04100
Fe133      Fe  0.49011820  0.74150046  0.23800223     1.65800
Fe134      Fe  0.45966901  0.66415740  0.20678668     1.73200
Fe135      Fe  0.40454409  0.71107652  0.25354188     1.54400
O136        O  0.42954302  0.72777029  0.29466318    -0.80500
O137        O  0.41803833  0.68034726  0.17867297    -0.78800
O138        O  0.48871635  0.73623480  0.28422857    -0.83000
O139        O  0.45498876  0.78635112  0.24248703    -0.77900
O140        O  0.40542265  0.65866487  0.27046664    -0.79700
O141        O  0.49683786  0.69045493  0.17915796    -0.82400
C142        C  0.42051731  0.79044097  0.24287380     0.98300
C143        C  0.46240982  0.73408825  0.30293888     1.05800
O144        O  0.45112855  0.70600803  0.23295285    -1.11400
O145        O  0.50093797  0.64752760  0.23479473    -0.73800
O146        O  0.53046094  0.70053439  0.23719448    -0.77300
O147        O  0.39859923  0.76415519  0.23936404    -0.78000
C148        C  0.52937508  0.66589151  0.24056288     0.97300
O149        O  0.49448582  0.74920858  0.19126669    -0.76000
O150        O  0.42445784  0.62947293  0.22926410    -0.81200
C151        C  0.38497182  0.68507144  0.18658766     0.99900
C152        C  0.40824855  0.62972910  0.25483160     1.05800
O153        O  0.37570583  0.69369284  0.21403464    -0.76800
C154        C  0.50384491  0.72352005  0.17337991     1.04100
Fe155      Fe  0.25568328  0.50440659  0.04020036     1.65800
Fe156      Fe  0.33105705  0.53553617  0.07444405     1.73200
Fe157      Fe  0.28581360  0.59015691  0.02611955     1.54400
O158        O  0.27051306  0.56534836  0.48461593    -0.80500
O159        O  0.31328816  0.57731943  0.10190561    -0.78800
O160        O  0.26407471  0.50568518  0.49419778    -0.83000
O161        O  0.21088550  0.53933012  0.03345110    -0.77900
O162        O  0.33861760  0.58878119  0.01034362    -0.79700
O163        O  0.30307309  0.49845899  0.10132863    -0.82400
C164        C  0.20641673  0.57382324  0.03352496     0.98300
C165        C  0.26564846  0.53240513  0.47585779     1.05800
O166        O  0.29047414  0.54363143  0.04679199    -1.11400
O167        O  0.34951990  0.49369201  0.04746214    -0.73800
O168        O  0.29660874  0.46438553  0.04317151    -0.77300
O169        O  0.23218581  0.59580471  0.03904547    -0.78000
C170        C  0.33138528  0.46512218  0.04147915     0.97300
O171        O  0.24512040  0.50002396  0.08661323    -0.76000
O172        O  0.36663021  0.57117434  0.05267442    -0.81200
C173        C  0.30952236  0.61035272  0.09360816     0.99900
C174        C  0.36688465  0.58678825  0.02678340     1.05800
O175        O  0.30199527  0.61928925  0.06589575    -0.76800
C176        C  0.26974553  0.49091066  0.10559286     1.04100
Fe177      Fe  0.03489400  0.24173788  0.23813141     1.65800
Fe178      Fe  0.06756097  0.16613835  0.20466894     1.73200
Fe179      Fe  0.12176789  0.21383773  0.25174865     1.54400
O180        O  0.12542537  0.26681943  0.23690581    -0.80500
O181        O  0.10269773  0.13134662  0.22794618    -0.78800
O182        O  0.06884993  0.28718223  0.24427772    -0.83000
O183        O  0.03701103  0.23392592  0.28415461    -0.77900
O184        O  0.15114508  0.19658802  0.21273833    -0.79700
O185        O  0.02572016  0.14777018  0.23153961    -0.82400
C186        C  0.06407727  0.23419804  0.30217164     0.98300
C187        C  0.10314183  0.29228663  0.24301794     1.05800
O188        O  0.07495710  0.20740004  0.23170903    -1.11400
O189        O  0.03080880  0.19369706  0.17689239    -0.73800
O190        O  0.02994908  0.25176158  0.19166228    -0.77300
O191        O  0.09704426  0.23031779  0.29309087    -0.78000
C192        C  0.02212827  0.22686736  0.17253538     0.97300
O193        O  0.99536183  0.20030742  0.23584343    -0.76000
O194        O  0.10951215  0.18317975  0.17711772    -0.81200
C195        C  0.11948517  0.13239094  0.25331848     0.99900
C196        C  0.14238136  0.18761983  0.18540217     1.05800
O197        O  0.12274776  0.16158900  0.26854735    -0.76800
C198        C  0.99694320  0.16552787  0.23790766     1.04100
Fe199      Fe  0.26894310  0.00271603  0.04009239     1.65800
Fe200      Fe  0.19134495  0.03452932  0.07053571     1.73200
Fe201      Fe  0.24140165  0.08978051  0.02632392     1.54400
O202        O  0.29358766  0.09296159  0.04277978    -0.80500
O203        O  0.15785512  0.06972523  0.04644055    -0.78800
O204        O  0.31452872  0.03671400  0.03519247    -0.83000
O205        O  0.26320829  0.00498053  0.49390577    -0.77900
O206        O  0.22348217  0.11852048  0.06555604    -0.79700
O207        O  0.17518590  0.99313140  0.04239324    -0.82400
C208        C  0.26306021  0.03227150  0.47608273     0.98300
C209        C  0.31938019  0.07101579  0.03695650     1.05800
O210        O  0.23406463  0.04261709  0.04544647    -1.11400
O211        O  0.21751563  0.99773442  0.09908067    -0.73800
O212        O  0.27639691  0.99822630  0.08690577    -0.77300
O213        O  0.25895009  0.06522337  0.48526065    -0.78000
C214        C  0.25054816  0.99015230  0.10506193     0.97300
O215        O  0.22784166  0.96277575  0.04111782    -0.76000
O216        O  0.20609757  0.07603806  0.09925500    -0.81200
C217        C  0.15993437  0.08738785  0.02158363     0.99900
C218        C  0.21318279  0.10894735  0.09239517     1.05800
O219        O  0.18995025  0.09162086  0.00777227    -0.76800
C220        C  0.19330459  0.96422415  0.03739839     1.04100
Fe221      Fe  0.03193342  0.72376876  0.48761720     1.65800
Fe222      Fe  0.06213359  0.79966105  0.45388052     1.73200
Fe223      Fe  0.11784092  0.75334816  0.00058531     1.54400
O224        O  0.09379011  0.73636871  0.04224930    -0.80500
O225        O  0.10347688  0.78283536  0.42587249    -0.78800
O226        O  0.03386071  0.73228370  0.03340660    -0.83000
O227        O  0.06724056  0.67894864  0.49382229    -0.77900
O228        O  0.11722529  0.80571845  0.01724242    -0.79700
O229        O  0.02528059  0.77138855  0.42686136    -0.82400
C230        C  0.10164666  0.67451606  0.49191416     0.98300
C231        C  0.06089747  0.73195185  0.05141647     1.05800
O232        O  0.07087882  0.75873277  0.48088580    -1.11400
O233        O  0.02081803  0.81734094  0.48133910    -0.73800
O234        O  0.99135341  0.76453327  0.48516048    -0.77300
O235        O  0.12301935  0.70051133  0.48577154    -0.78000
C236        C  0.99229567  0.79934802  0.48734224     0.97300
O237        O  0.02746742  0.71329948  0.44134233    -0.76000
O238        O  0.09744959  0.83509886  0.47619223    -0.81200
C239        C  0.13661399  0.77837480  0.43342285     0.99900
C240        C  0.11446016  0.83455265  0.00148461     1.05800
O241        O  0.14620300  0.77049543  0.46086740    -0.76800
C242        C  0.01827056  0.73789765  0.42239390     1.04100
Fe243      Fe  0.26846998  0.96100445  0.29097099     1.65800
Fe244      Fe  0.19209282  0.92848374  0.32292242     1.73200
Fe245      Fe  0.24098844  0.87446142  0.27608870     1.54400
O246        O  0.25688723  0.90013803  0.23512338    -0.80500
O247        O  0.20758491  0.88547766  0.35013064    -0.78800
O248        O  0.26030503  0.96007258  0.24495217    -0.83000
O249        O  0.31384464  0.92717921  0.28404996    -0.77900
O250        O  0.18915571  0.87300122  0.25889883    -0.79700
O251        O  0.21983615  0.96366917  0.35166128    -0.82400
C252        C  0.31901435  0.89290224  0.28515055     0.98300
C253        C  0.25993964  0.93335562  0.22649289     1.05800
O254        O  0.23394615  0.92103824  0.29653985    -1.11400
O255        O  0.17500488  0.97164299  0.29668086    -0.73800
O256        O  0.22783561  0.00102001  0.29421857    -0.77300
O257        O  0.29369495  0.87078096  0.29130950    -0.78000
C258        C  0.19323568  0.00034812  0.29155679     0.97300
O259        O  0.27811985  0.96467845  0.33751371    -0.76000
O260        O  0.15753435  0.89445511  0.29839630    -0.81200
C261        C  0.21356325  0.85279730  0.34172820     0.99900
C262        C  0.15960308  0.87661265  0.27351921     1.05800
O263        O  0.22393950  0.84445942  0.31462942    -0.76800
C264        C  0.25284615  0.97239178  0.35641240     1.04100
Fe265      Fe  0.99167741  0.72091397  0.23806992     1.65800
Fe266      Fe  0.95993824  0.79750264  0.20544006     1.73200
Fe267      Fe  0.90519255  0.74972083  0.25172615     1.54400
O268        O  0.90076200  0.69762549  0.23493145    -0.80500
O269        O  0.92596542  0.83234280  0.23012469    -0.78800
O270        O  0.95663115  0.67597405  0.24342719    -0.83000
O271        O  0.98940584  0.72825877  0.28412109    -0.77900
O272        O  0.87577965  0.76956950  0.21352626    -0.79700
O273        O  0.00222462  0.81452934  0.23181794    -0.82400
C274        C  0.96209651  0.72728249  0.30188317     0.98300
C275        C  0.92229654  0.67149238  0.24099876     1.05800
O276        O  0.95214457  0.75589459  0.23188063    -1.11400
O277        O  0.99577626  0.76968839  0.17694285    -0.73800
O278        O  0.99679357  0.71151357  0.19158791    -0.77300
O279        O  0.92925679  0.73077126  0.29249889    -0.78000
C280        C  0.00440825  0.73650601  0.17251675     0.97300
O281        O  0.03195681  0.76176958  0.23620970    -0.76000
O282        O  0.91755058  0.78210340  0.17791706    -0.81200
C283        C  0.90985288  0.83083367  0.25586359     0.99900
C284        C  0.88459949  0.77885978  0.18628085     1.05800
O285        O  0.90594199  0.80114471  0.27025765    -0.76800
C286        C  0.03093003  0.79662364  0.23776486     1.04100
Fe287      Fe  0.75205707  0.96215801  0.04010929     1.65800
Fe288      Fe  0.83064962  0.93339780  0.07117454     1.73200
Fe289      Fe  0.78199983  0.87551054  0.02808443     1.54400
O290        O  0.73005886  0.87106852  0.04473538    -0.80500
O291        O  0.86509408  0.89799758  0.04782918    -0.78800
O292        O  0.70726267  0.92640909  0.03640636    -0.83000
O293        O  0.75786650  0.95825382  0.49387183    -0.77900
O294        O  0.80085298  0.84864434  0.06778843    -0.79700
O295        O  0.84556165  0.97451472  0.04215951    -0.82400
C296        C  0.75915140  0.93058365  0.47642072     0.98300
C297        C  0.70348225  0.89195728  0.03886952     1.05800
O298        O  0.78804220  0.92342971  0.04634617    -1.11400
O299        O  0.80371443  0.97063336  0.09891803    -0.73800
O300        O  0.74478504  0.96871138  0.08695310    -0.77300
O301        O  0.76397900  0.89803328  0.48630095    -0.78000
C302        C  0.77059197  0.97795095  0.10479136     0.97300
O303        O  0.79208339  0.00336996  0.03986043    -0.76000
O304        O  0.81711461  0.89221468  0.10096145    -0.81200
C305        C  0.86301052  0.87901768  0.02360262     0.99900
C306        C  0.81125369  0.85892279  0.09440785     1.05800
O307        O  0.83326095  0.87450630  0.00960994    -0.76800
C308        C  0.82676010  0.00283773  0.03656674     1.04100
Fe309      Fe  0.99220920  0.24175839  0.48756363     1.65800
Fe310      Fe  0.95861244  0.16688513  0.45395168     1.73200
Fe311      Fe  0.90545543  0.21430720  0.00205342     1.54400
O312        O  0.93086327  0.23051754  0.04316056    -0.80500
O313        O  0.91640508  0.18485399  0.42709043    -0.78800
O314        O  0.99079998  0.23363970  0.03367721    -0.83000
O315        O  0.95844123  0.28733247  0.49437367    -0.77900
O316        O  0.90410502  0.16183461  0.01862394    -0.79700
O317        O  0.99522387  0.19418553  0.42611905    -0.82400
C318        C  0.92414536  0.29240496  0.49310801     0.98300
C319        C  0.96392601  0.23417191  0.05198339     1.05800
O320        O  0.95197922  0.20771666  0.48149189    -1.11400
O321        O  0.00083146  0.14793323  0.48004729    -0.73800
O322        O  0.03154660  0.20014524  0.48412772    -0.77300
O323        O  0.90206466  0.26705063  0.48689333    -0.78000
C324        C  0.02992494  0.16537933  0.48550126     0.97300
O325        O  0.99661497  0.25212580  0.44113422    -0.76000
O326        O  0.92318863  0.13244905  0.47717846    -0.81200
C327        C  0.88362795  0.18882717  0.43594159     0.99900
C328        C  0.90610837  0.13315827  0.00249629     1.05800
O329        O  0.87537107  0.19746413  0.46347613    -0.76800
C330        C  0.00441430  0.22717082  0.42198068     1.04100
Fe331      Fe  0.75960144  0.00183222  0.29047536     1.65800
Fe332      Fe  0.83432456  0.03398219  0.32540088     1.73200
Fe333      Fe  0.78598475  0.08910283  0.27880071     1.54400
O334        O  0.77091638  0.06517661  0.23668946    -0.80500
O335        O  0.81706964  0.07569334  0.35341139    -0.78800
O336        O  0.76919070  0.00487414  0.24470738    -0.83000
O337        O  0.71363217  0.03554634  0.28366081    -0.77900
O338        O  0.83854696  0.09129582  0.26276750    -0.79700
O339        O  0.80610841  0.99695320  0.35260915    -0.82400
C340        C  0.70766695  0.06972888  0.28581057     0.98300
C341        C  0.76809315  0.03230296  0.22704604     1.05800
O342        O  0.79321552  0.04188415  0.29811830    -1.11400
O343        O  0.85338296  0.99200942  0.29867632    -0.73800
O344        O  0.80099399  0.96227401  0.29354005    -0.77300
O345        O  0.73257732  0.09195363  0.29293002    -0.78000
C346        C  0.83578924  0.96315840  0.29274105     0.97300
O347        O  0.74847595  0.99603447  0.33662559    -0.76000
O348        O  0.86933645  0.06951149  0.30247197    -0.81200
C349        C  0.81052397  0.10854797  0.34583277     0.99900
C350        C  0.86793158  0.08757828  0.27765066     1.05800
O351        O  0.80124283  0.11761594  0.31864083    -0.76800
C352        C  0.77290425  0.98796953  0.35615053     1.04100
C353        C  0.83962958  0.16732392  0.36056152     0.24700
C354        C  0.81822402  0.13715766  0.36893260    -0.23400
C355        C  0.81179899  0.13055923  0.40024572     0.19600
C356        C  0.82955201  0.15131217  0.42266663     0.24700
C357        C  0.85477829  0.17825814  0.41407825    -0.23300
C358        C  0.85818105  0.18735131  0.38294418     0.19600
F359        F  0.88203548  0.21351310  0.37404032    -0.13300
F360        F  0.84634383  0.17456193  0.33060457    -0.15600
F361        F  0.82562504  0.14189619  0.45256318    -0.15600
F362        F  0.79069667  0.10209339  0.40911774    -0.13300
C363        C  0.87998358  0.03379160  0.01168029     0.24700
C364        C  0.84626332  0.03642994  0.02708028    -0.23400
C365        C  0.83262565  0.07126866  0.03458036     0.19600
C366        C  0.85260588  0.10266502  0.02745675     0.24700
C367        C  0.88646990  0.09989653  0.01232818    -0.23300
C368        C  0.89970453  0.06514510  0.00428712     0.19600
F369        F  0.93203934  0.06140599  0.98940614    -0.13300
F370        F  0.89367495  0.00080608  0.00324240    -0.15600
F371        F  0.83821084  0.13583475  0.03445386    -0.15600
F372        F  0.80022454  0.07504401  0.04934684    -0.13300
C373        C  0.78238349  0.92348156  0.42300635     0.24700
C374        C  0.75625283  0.93778540  0.44325688    -0.23400
C375        C  0.73155372  0.96447091  0.43260865     0.19600
C376        C  0.73495419  0.97886489  0.40307277     0.24700
C377        C  0.76354602  0.96731044  0.38404109    -0.23300
C378        C  0.78621933  0.93838209  0.39367922     0.19600
F379        F  0.81321040  0.92570622  0.37514561    -0.13300
F380        F  0.80639062  0.89758315  0.43254509    -0.15600
F381        F  0.71237312  0.00628149  0.39412390    -0.15600
F382        F  0.70541288  0.97810886  0.45150260    -0.13300
C383        C  0.73939775  0.98281497  0.15534305     0.24700
C384        C  0.76329494  0.99754687  0.13366865    -0.23400
C385        C  0.78497444  0.02774949  0.14179400     0.19600
C386        C  0.78452799  0.04139213  0.17178264     0.24700
C387        C  0.76294144  0.02448496  0.19414261    -0.23300
C388        C  0.73932026  0.99606580  0.18536771     0.19600
F389        F  0.71738487  0.97986536  0.20636418    -0.13300
F390        F  0.71863406  0.95343427  0.14824187    -0.15600
F391        F  0.80738150  0.06896241  0.17948468    -0.15600
F392        F  0.80800149  0.04280422  0.12100885    -0.13300
C393        C  0.83173572  0.81833790  0.17209243     0.24700
C394        C  0.85642346  0.79045662  0.16400937    -0.23400
C395        C  0.86006701  0.78087202  0.13295477     0.19600
C396        C  0.84191867  0.80086006  0.11020430     0.24700
C397        C  0.82040059  0.83133969  0.11809493    -0.23300
C398        C  0.81418414  0.83886439  0.14930927     0.19600
F399        F  0.79315604  0.86778493  0.15770165    -0.13300
F400        F  0.82791416  0.82857289  0.20182333    -0.15600
F401        F  0.84881772  0.79297017  0.08036763    -0.15600
F402        F  0.88360096  0.75398780  0.12450317    -0.13300
C403        C  0.85908757  0.86287687  0.28304394     0.24700
C404        C  0.89318914  0.86445571  0.26837516    -0.23400
C405        C  0.90944865  0.89862373  0.26351511     0.19600
C406        C  0.89133199  0.93073802  0.27213971     0.24700
C407        C  0.85621617  0.92926229  0.28526663    -0.23300
C408        C  0.84068756  0.89490881  0.29116875     0.19600
F409        F  0.80755907  0.89217748  0.30486004    -0.13300
F410        F  0.84265055  0.83032700  0.28821944    -0.15600
F411        F  0.90769522  0.96324630  0.26665644    -0.15600
F412        F  0.94289281  0.90093461  0.25029547    -0.13300
C413        C  0.09247816  0.87375989  0.26406294     0.24700
C414        C  0.12701934  0.85740579  0.26228501    -0.23400
C415        C  0.13006326  0.82118981  0.25185395     0.19600
C416        C  0.09897692  0.80132450  0.24400943     0.24700
C417        C  0.06414741  0.81742419  0.24614498    -0.23300
C418        C  0.06137609  0.85416751  0.25583792     0.19600
F419        F  0.02850315  0.87117407  0.25794500    -0.13300
F420        F  0.08885040  0.90888182  0.27357158    -0.15600
F421        F  0.10314569  0.76640534  0.23416134    -0.15600
F422        F  0.16311974  0.80443857  0.25046162    -0.13300
C423        C  0.92422040  0.80508843  0.99134155     0.24700
C424        C  0.95905665  0.81984036  0.99626920    -0.23400
C425        C  0.96190905  0.85503876  0.50916600     0.19600
C426        C  0.93067207  0.87471819  0.01727899     0.24700
C427        C  0.89593328  0.85986838  0.01247306    -0.23300
C428        C  0.89298478  0.82494486  0.99923869     0.19600
F429        F  0.85986114  0.80933131  0.99502604    -0.13300
F430        F  0.92022248  0.77153012  0.97859848    -0.15600
F431        F  0.93445814  0.90843114  0.52979556    -0.15600
F432        F  0.99497559  0.87021599  0.51463380    -0.13300
C433        C  0.21470006  0.82566444  0.39428468     0.24700
C434        C  0.20341851  0.82379898  0.36356399    -0.23400
C435        C  0.17498926  0.80005589  0.35564436     0.19600
C436        C  0.15550593  0.78171036  0.37844274     0.24700
C437        C  0.16431818  0.78652532  0.40960413    -0.23300
C438        C  0.19557575  0.80680959  0.41714155     0.19600
F439        F  0.20503712  0.81199801  0.44686636    -0.13300
F440        F  0.24236013  0.84815070  0.40243230    -0.15600
F441        F  0.12584621  0.76192378  0.37022032    -0.15600
F442        F  0.16294465  0.79833692  0.32627859    -0.13300
C443        C  0.05571852  0.74795449  0.13663676     0.24700
C444        C  0.02421220  0.72801819  0.14411001    -0.23400
C445        C  0.00887092  0.70473478  0.12229804     0.19600
C446        C  0.02270971  0.70408149  0.09247554     0.24700
C447        C  0.05245208  0.72639459  0.08418426    -0.23300
C448        C  0.07006662  0.74680102  0.10693230     0.19600
F449        F  0.09910015  0.76803961  0.09984945    -0.13300
F450        F  0.07139988  0.77007493  0.15777576    -0.15600
F451        F  0.00576099  0.68306305  0.07122640    -0.15600
F452        F  0.97855454  0.68518584  0.12907779    -0.13300
C453        C  0.01204923  0.70204784  0.37410586     0.24700
C454        C  0.99838478  0.72854824  0.39426888    -0.23400
C455        C  0.96815847  0.74989584  0.38548696     0.19600
C456        C  0.95367282  0.74687648  0.35602596     0.24700
C457        C  0.96982393  0.72309940  0.33477334    -0.23300
C458        C  0.99806123  0.69955100  0.34440008     0.19600
F459        F  0.01342881  0.67552666  0.32446246    -0.13300
F460        F  0.04100482  0.68096766  0.38218251    -0.15600
F461        F  0.92623037  0.76962758  0.34743281    -0.15600
F462        F  0.95391482  0.77509570  0.40498608    -0.13300
C463        C  0.14064488  0.93400146  0.01111343     0.24700
C464        C  0.17321947  0.93107436  0.02803819    -0.23400
C465        C  0.18559356  0.89629184  0.03685282     0.19600
C466        C  0.16580034  0.86512309  0.02906919     0.24700
C467        C  0.13339024  0.86796338  0.01192574    -0.23300
C468        C  0.12105455  0.90277534  0.00300542     0.19600
F469        F  0.08986898  0.90669180  0.98657856    -0.13300
F470        F  0.12810124  0.96709217  0.00178163    -0.15600
F471        F  0.17910603  0.83201013  0.03752958    -0.15600
F472        F  0.21659173  0.89238711  0.05351277    -0.13300
C473        C  0.09186808  0.09379282  0.01987042     0.24700
C474        C  0.12646004  0.10503456  0.00950846    -0.23400
C475        C  0.12869364  0.13542157  0.48982003     0.19600
C476        C  0.09731987  0.15516704  0.48208183     0.24700
C477        C  0.06305306  0.14443811  0.99323705    -0.23300
C478        C  0.06054471  0.11318046  0.01167113     0.19600
F479        F  0.02782371  0.10218984  0.02285471    -0.13300
F480        F  0.08823858  0.06423882  0.03833632    -0.15600
F481        F  0.10046470  0.18471291  0.46355283    -0.15600
F482        F  0.16133098  0.14699017  0.47889889    -0.13300
C483        C  0.29070681  0.98501085  0.40309288     0.24700
C484        C  0.26050861  0.99318956  0.38458281    -0.23400
C485        C  0.23489276  0.01937307  0.39466928     0.19600
C486        C  0.23784888  0.03499644  0.42367853     0.24700
C487        C  0.26610316  0.02430965  0.44324098    -0.23300
C488        C  0.29320257  0.00012310  0.43248960     0.19600
F489        F  0.32098261  0.98969858  0.45110461    -0.13300
F490        F  0.31606991  0.96028552  0.39378914    -0.15600
F491        F  0.21114204  0.05782441  0.43374824    -0.15600
F492        F  0.20591839  0.02860374  0.37690816    -0.13300
C493        C  0.23429977  0.94279454  0.14351955     0.24700
C494        C  0.25782278  0.97094174  0.13405220    -0.23400
C495        C  0.28514774  0.98305016  0.15399559     0.19600
C496        C  0.28727082  0.96900549  0.18372154     0.24700
C497        C  0.26250455  0.94222691  0.19369267    -0.23300
C498        C  0.23683939  0.92831872  0.17304304     0.19600
F499        F  0.21228001  0.90294250  0.18222365    -0.13300
F500        F  0.20784743  0.93031600  0.12450430    -0.15600
F501        F  0.31255406  0.98265528  0.20326792    -0.15600
F502        F  0.30783626  0.01044901  0.14557942    -0.13300
C503        C  0.96736147  0.11204887  0.26390430     0.24700
C504        C  0.96407970  0.14499140  0.24746780    -0.23400
C505        C  0.92907615  0.15800788  0.24013188     0.19600
C506        C  0.89803346  0.13885365  0.24930732     0.24700
C507        C  0.90118531  0.10629439  0.26631437    -0.23300
C508        C  0.93625570  0.09310075  0.27347563     0.19600
F509        F  0.94053219  0.06170107  0.28958372    -0.13300
F510        F  0.00071491  0.09857968  0.27143080    -0.15600
F511        F  0.86478888  0.15295513  0.24230522    -0.15600
F512        F  0.92480834  0.18909932  0.22360716    -0.13300
C513        C  0.02902381  0.26407917  0.34426822     0.24700
C514        C  0.05578886  0.23863643  0.33497213    -0.23400
C515        C  0.06969918  0.21376368  0.35635319     0.19600
C516        C  0.05433095  0.21177411  0.38559560     0.24700
C517        C  0.02549025  0.23523641  0.39408510    -0.23300
C518        C  0.01422249  0.26263125  0.37379415     0.19600
F519        F  0.98671968  0.28577435  0.38153507    -0.13300
F520        F  0.01583930  0.28907638  0.32414128    -0.15600
F521        F  0.06624698  0.18551930  0.40512394    -0.15600
F522        F  0.09567209  0.18914984  0.34806452    -0.13300
C523        C  0.95708882  0.21527508  0.10664300     0.24700
C524        C  0.97246327  0.23865859  0.08481535    -0.23400
C525        C  0.00018732  0.26293482  0.09390573     0.19600
C526        C  0.01457486  0.26143853  0.12357432     0.24700
C527        C  0.00174415  0.23532670  0.14433734    -0.23300
C528        C  0.97191993  0.21332567  0.13609583     0.19600
F529        F  0.95833643  0.18860477  0.15620002    -0.13300
F530        F  0.92989980  0.19209903  0.09873188    -0.15600
F531        F  0.04300756  0.28326754  0.13110880    -0.15600
F532        F  0.01446440  0.28698093  0.07356346    -0.13300
C533        C  0.16846997  0.18839530  0.13245232     0.24700
C534        C  0.17086940  0.17700407  0.16313547    -0.23400
C535        C  0.19425139  0.14788311  0.17057924     0.19600
C536        C  0.21132967  0.12769905  0.14739605     0.24700
C537        C  0.20593059  0.13673603  0.11637982    -0.23300
C538        C  0.18625933  0.16867578  0.10922579     0.19600
F539        F  0.18058233  0.17831086  0.07959709    -0.13300
F540        F  0.14641528  0.21677599  0.12475847    -0.15600
F541        F  0.23050178  0.09729160  0.15513325    -0.15600
F542        F  0.19674648  0.13593439  0.19993901    -0.13300
C543        C  0.18981265  0.06862377  0.28739525     0.24700
C544        C  0.17372979  0.03422920  0.28264615    -0.23400
C545        C  0.13899192  0.03259684  0.26894472     0.19600
C546        C  0.12106724  0.06454176  0.25983890     0.24700
C547        C  0.13718211  0.09877702  0.26465280    -0.23300
C548        C  0.17165327  0.10052293  0.27860869     0.19600
F549        F  0.18855207  0.13308489  0.28258245    -0.13300
F550        F  0.22316387  0.07155904  0.30062090    -0.15600
F551        F  0.08783363  0.06198527  0.24636159    -0.15600
F552        F  0.12270184  0.00003321  0.26349957    -0.13300
C553        C  0.12083336  0.63111896  0.03239692     0.24700
C554        C  0.11872998  0.63959450  0.00096830    -0.23400
C555        C  0.14123501  0.62066722  0.48034197     0.19600
C556        C  0.16709412  0.59551979  0.49113951     0.24700
C557        C  0.17167420  0.58983734  0.02281315    -0.23300
C558        C  0.14754007  0.60683640  0.04328859     0.19600
F559        F  0.15172574  0.60216432  0.07390566    -0.13300
F560        F  0.09989251  0.64958763  0.05290002    -0.15600
F561        F  0.19020795  0.57951577  0.47082236    -0.15600
F562        F  0.14017813  0.62875043  0.45001973    -0.13300
C563        C  0.38404160  0.84675470  0.23191121     0.24700
C564        C  0.40449769  0.82557380  0.25240331    -0.23400
C565        C  0.40169055  0.83257890  0.28403980     0.19600
C566        C  0.37600904  0.85767171  0.29518334     0.24700
C567        C  0.35383360  0.87709321  0.27477704    -0.23300
C568        C  0.35943136  0.87297282  0.24304029     0.19600
F569        F  0.33799619  0.89130438  0.22287006    -0.13300
F570        F  0.38561017  0.83991512  0.20138747    -0.15600
F571        F  0.37058937  0.86068490  0.32583570    -0.15600
F572        F  0.42076951  0.81197008  0.30432455    -0.13300
C573        C  0.36343365  0.68403541  0.13219734     0.24700
C574        C  0.35689765  0.67620875  0.16329631    -0.23400
C575        C  0.32824703  0.65242955  0.17082560     0.19600
C576        C  0.30970884  0.63342162  0.14771420     0.24700
C577        C  0.31872363  0.63867604  0.11665485    -0.23300
C578        C  0.34411142  0.66588234  0.10910352     0.19600
F579        F  0.35346978  0.67177002  0.07944253    -0.13300
F580        F  0.39074199  0.70702514  0.12413027    -0.15600
F581        F  0.28502618  0.60764076  0.15578521    -0.15600
F582        F  0.32117826  0.64417411  0.20054515    -0.13300
C583        C  0.14840875  0.35809061  0.29605237     0.24700
C584        C  0.16939150  0.37864394  0.27557260    -0.23400
C585        C  0.16253472  0.37564687  0.24392922     0.19600
C586        C  0.13791321  0.34960827  0.23283585     0.24700
C587        C  0.11880940  0.32724249  0.25328260    -0.23300
C588        C  0.12282786  0.33302611  0.28499793     0.19600
F589        F  0.10510445  0.31135204  0.30527961    -0.13300
F590        F  0.15499576  0.35996932  0.32659439    -0.15600
F591        F  0.13503981  0.34410116  0.20219798    -0.15600
F592        F  0.18291243  0.39480440  0.22361076    -0.13300
C593        C  0.36305815  0.59665371  0.28797870     0.24700
C594        C  0.39077493  0.59559246  0.26560167    -0.23400
C595        C  0.39948261  0.56181743  0.25175562     0.19600
C596        C  0.38071464  0.53016358  0.25985711     0.24700
C597        C  0.35246914  0.53162557  0.28151373    -0.23300
C598        C  0.34385122  0.56505449  0.29554904     0.19600
F599        F  0.31697648  0.56708996  0.31687577    -0.13300
F600        F  0.35359840  0.62843312  0.30193400    -0.15600
F601        F  0.38925046  0.49827011  0.24563965    -0.15600
F602        F  0.42592365  0.55929910  0.23005890    -0.13300
C603        C  0.23775516  0.48638236  0.15563544     0.24700
C604        C  0.26077353  0.47073549  0.13367268    -0.23400
C605        C  0.28032202  0.43870900  0.14090489     0.19600
C606        C  0.27884536  0.42398715  0.17046537     0.24700
C607        C  0.25836557  0.44161157  0.19330117    -0.23300
C608        C  0.23663054  0.47204392  0.18526143     0.19600
F609        F  0.21574447  0.48918080  0.20661487    -0.13300
F610        F  0.21903706  0.51749753  0.14925283    -0.15600
F611        F  0.29988746  0.39456586  0.17736637    -0.15600
F612        F  0.30245912  0.42289409  0.11972365    -0.13300
C613        C  0.28873276  0.53606506  0.42235802     0.24700
C614        C  0.26233893  0.52375389  0.44305105    -0.23400
C615        C  0.23603620  0.49840921  0.43313736     0.19600
C616        C  0.23760843  0.48381631  0.40352686     0.24700
C617        C  0.26600879  0.49377229  0.38376975    -0.23300
C618        C  0.29081612  0.52089946  0.39306092     0.19600
F619        F  0.31827637  0.53145306  0.37422389    -0.13300
F620        F  0.31449250  0.56029511  0.43136870    -0.15600
F621        F  0.21331649  0.45781709  0.39513888    -0.15600
F622        F  0.20982976  0.48652923  0.45267317    -0.13300
C623        C  0.37144092  0.11231054  0.04789116     0.24700
C624        C  0.35465406  0.08728917  0.02822002    -0.23400
C625        C  0.36537273  0.08621975  0.49719475     0.19600
C626        C  0.38956773  0.11238506  0.48545766     0.24700
C627        C  0.40414657  0.13914405  0.00480713    -0.23300
C628        C  0.39630749  0.13768968  0.03636518     0.19600
F629        F  0.40982892  0.16334108  0.05561657    -0.13300
F630        F  0.36128961  0.11426127  0.07775736    -0.15600
F631        F  0.39624342  0.11352279  0.45490443    -0.15600
F632        F  0.34899929  0.06275417  0.47752347    -0.13300
C633        C  0.32406960  0.31404735  0.42113392     0.24700
C634        C  0.34945247  0.28649343  0.41395238    -0.23400
C635        C  0.35340640  0.27558851  0.38321459     0.19600
C636        C  0.33570631  0.29478061  0.35976545     0.24700
C637        C  0.31428441  0.32558938  0.36671054    -0.23300
C638        C  0.30687404  0.33369833  0.39765815     0.19600
F639        F  0.28566688  0.36286014  0.40510268    -0.13300
F640        F  0.31968645  0.32526150  0.45056386    -0.15600
F641        F  0.34349172  0.28624314  0.33020953    -0.15600
F642        F  0.37739027  0.24871251  0.37569434    -0.13300
C643        C  0.40407106  0.40116492  0.01022238     0.24700
C644        C  0.38818654  0.36691913  0.01550069    -0.23400
C645        C  0.35408404  0.36509840  0.03007930     0.19600
C646        C  0.33572707  0.39697422  0.03859740     0.24700
C647        C  0.35129009  0.43138507  0.03297685    -0.23300
C648        C  0.38595124  0.43311716  0.01910130     0.19600
F649        F  0.40189250  0.46574620  0.01319739    -0.13300
F650        F  0.43715404  0.40368614  0.49641445    -0.15600
F651        F  0.30270121  0.39404595  0.05242197    -0.15600
F652        F  0.33764030  0.33244972  0.03481056    -0.13300
C653        C  0.86191226  0.37326451  0.49428350     0.24700
C654        C  0.85338515  0.37425489  0.02572010    -0.23400
C655        C  0.87466685  0.35412492  0.04631112     0.19600
C656        C  0.90241607  0.33122731  0.03537581     0.24700
C657        C  0.90800591  0.32695683  0.00366225    -0.23300
C658        C  0.88861389  0.34919265  0.48324958     0.19600
F659        F  0.89309929  0.34507088  0.45258131    -0.13300
F660        F  0.84134845  0.39228904  0.47392455    -0.15600
F661        F  0.92070436  0.30976673  0.05554324    -0.15600
F662        F  0.86652381  0.35424209  0.07663816    -0.13300
C663        C  0.62572064  0.32523253  0.98785625     0.24700
C664        C  0.62413668  0.35511079  0.00815622    -0.23400
C665        C  0.58981788  0.36765262  0.01828205     0.19600
C666        C  0.55801568  0.34977236  0.50944533     0.24700
C667        C  0.55983558  0.31874240  0.49057751    -0.23300
C668        C  0.59386284  0.30702154  0.97940268     0.19600
F669        F  0.59630182  0.27796399  0.96018827    -0.13300
F670        F  0.65814947  0.31263466  0.97708673    -0.15600
F671        F  0.52551447  0.36197776  0.52041987    -0.15600
F672        F  0.58693803  0.39707489  0.03707157    -0.13300
C673        C  0.66494395  0.08769064  0.24425407     0.24700
C674        C  0.67234294  0.08551627  0.27587709    -0.23400
C675        C  0.65121210  0.10649223  0.29616014     0.19600
C676        C  0.62492521  0.13099837  0.28492069     0.24700
C677        C  0.62023678  0.13593449  0.25316388    -0.23300
C678        C  0.63963549  0.11324312  0.23294724     0.19600
F679        F  0.63628875  0.11790775  0.20225184    -0.13300
F680        F  0.68523702  0.06803478  0.22406793    -0.15600
F681        F  0.60689573  0.15288700  0.30500694    -0.15600
F682        F  0.65801000  0.10531321  0.32669059    -0.13300
C683        C  0.43220274  0.36980865  0.26702785     0.24700
C684        C  0.39750487  0.35486907  0.26193068    -0.23400
C685        C  0.39490829  0.32045484  0.24775432     0.19600
C686        C  0.42637178  0.30120740  0.23920090     0.24700
C687        C  0.46116060  0.31611004  0.24432116    -0.23300
C688        C  0.46365024  0.35080991  0.25816437     0.19600
F689        F  0.49659579  0.36611228  0.26389998    -0.13300
F690        F  0.43574630  0.40299752  0.28053764    -0.15600
F691        F  0.42265087  0.26806783  0.22566488    -0.15600
F692        F  0.36190807  0.30471317  0.24322105    -0.13300
C693        C  0.52599142  0.20188270  0.34189639     0.24700
C694        C  0.55207831  0.22779026  0.33261052    -0.23400
C695        C  0.56372909  0.25433979  0.35345354     0.19600
C696        C  0.54741285  0.25674337  0.38230878     0.24700
C697        C  0.51962894  0.23225282  0.39087333    -0.23300
C698        C  0.51010933  0.20390569  0.37096610     0.19600
F699        F  0.48332325  0.18013855  0.37860634    -0.13300
F700        F  0.51447625  0.17575620  0.32211958    -0.15600
F701        F  0.55757932  0.28412082  0.40142122    -0.15600
F702        F  0.58841161  0.27992953  0.34494007    -0.13300
C703        C  0.45520685  0.24417448  0.10543492     0.24700
C704        C  0.47358292  0.22541921  0.08196339    -0.23400
C705        C  0.50480210  0.20447613  0.08935536     0.19600
C706        C  0.51909354  0.20492280  0.11902672     0.24700
C707        C  0.50245022  0.22626164  0.14168521    -0.23300
C708        C  0.46976712  0.24485184  0.13501705     0.19600
F709        F  0.45304366  0.26533596  0.15687013    -0.13300
F710        F  0.42488808  0.26422275  0.09928531    -0.15600
F711        F  0.55085022  0.18710637  0.12491807    -0.15600
F712        F  0.52244469  0.18476061  0.06750872    -0.13300
C713        C  0.69619906  0.30618485  0.16711712     0.24700
C714        C  0.66864644  0.28110018  0.15992140    -0.23400
C715        C  0.66310191  0.27137040  0.12908486     0.19600
C716        C  0.68192904  0.28945961  0.10566664     0.24700
C717        C  0.70594991  0.31802210  0.11284474    -0.23300
C718        C  0.71450506  0.32469088  0.14374530     0.19600
F719        F  0.73778228  0.35195416  0.15132140    -0.13300
F720        F  0.70178042  0.31660308  0.19658583    -0.15600
F721        F  0.67298774  0.28242559  0.07608538    -0.15600
F722        F  0.63692225  0.24686181  0.12155164    -0.13300
C723        C  0.85506209  0.59479310  0.24011198     0.24700
C724        C  0.85384611  0.58568923  0.27141445    -0.23400
C725        C  0.88069069  0.59960262  0.29102549     0.19600
C726        C  0.90680972  0.62423703  0.27979532     0.24700
C727        C  0.90549769  0.63617731  0.24910242    -0.23300
C728        C  0.88028784  0.62017023  0.22914894     0.19600
F729        F  0.87811879  0.63141940  0.19959093    -0.13300
F730        F  0.82928140  0.58192517  0.22067494    -0.15600
F731        F  0.93058806  0.63970387  0.29971010    -0.15600
F732        F  0.87974465  0.59180595  0.32138574    -0.13300
C733        C  0.68951300  0.39354094  0.28365430     0.24700
C734        C  0.67549600  0.42844735  0.27709756    -0.23400
C735        C  0.64206274  0.43135464  0.26137368     0.19600
C736        C  0.62299052  0.40003510  0.25262510     0.24700
C737        C  0.63664812  0.36517248  0.25982027    -0.23300
C738        C  0.67019518  0.36229134  0.27530511     0.19600
F739        F  0.68497840  0.32910127  0.28158279    -0.13300
F740        F  0.72168495  0.38952224  0.29865348    -0.15600
F741        F  0.59093809  0.40387254  0.23741662    -0.15600
F742        F  0.62809888  0.46454774  0.25389334    -0.13300
C743        C  0.59059003  0.59215256  0.27342877     0.24700
C744        C  0.62543740  0.60542703  0.26615727    -0.23400
C745        C  0.62848822  0.63945738  0.25142842     0.19600
C746        C  0.59736099  0.65956855  0.24376554     0.24700
C747        C  0.56246669  0.64589050  0.25038404    -0.23300
C748        C  0.55943948  0.61207697  0.26549738     0.19600
F749        F  0.52626276  0.59844951  0.27309633    -0.13300
F750        F  0.58659234  0.55965301  0.28792312    -0.15600
F751        F  0.60145841  0.69210267  0.22933999    -0.15600
F752        F  0.66171385  0.65390099  0.24521067    -0.13300
C753        C  0.78497088  0.47812964  0.15276275     0.24700
C754        C  0.75570253  0.48748195  0.13367318    -0.23400
C755        C  0.73105014  0.51489351  0.14314999     0.19600
C756        C  0.73437745  0.53116564  0.17198831     0.24700
C757        C  0.76199524  0.51980334  0.19202196    -0.23300
C758        C  0.78791540  0.49393594  0.18184037     0.19600
F759        F  0.81512569  0.48267607  0.20070868    -0.13300
F760        F  0.80900039  0.45170314  0.14428112    -0.15600
F761        F  0.70879275  0.55567157  0.18128378    -0.15600
F762        F  0.70285624  0.52498653  0.12484626    -0.13300
C763        C  0.73889704  0.43643015  0.39086878     0.24700
C764        C  0.76161404  0.46574708  0.38255901    -0.23400
C765        C  0.78761198  0.47837342  0.40348550     0.19600
C766        C  0.78849824  0.46425163  0.43325019     0.24700
C767        C  0.76387914  0.43682592  0.44224331    -0.23300
C768        C  0.74026519  0.42183519  0.42041837     0.19600
F769        F  0.71634586  0.39530138  0.42840872    -0.13300
F770        F  0.71407105  0.42311600  0.37073564    -0.15600
F771        F  0.81232398  0.47849696  0.45376346    -0.15600
F772        F  0.80996008  0.50641392  0.39598501    -0.13300
C773        C  0.63268187  0.84797098  0.48922011     0.24700
C774        C  0.62075422  0.81982256  0.00847796    -0.23400
C775        C  0.63037927  0.82079591  0.03967604     0.19600
C776        C  0.65439409  0.84729604  0.05078187     0.24700
C777        C  0.66857952  0.87397036  0.03109867    -0.23300
C778        C  0.65608641  0.87517192  0.50055529     0.19600
F779        F  0.66998269  0.90006275  0.48077317    -0.13300
F780        F  0.62406504  0.84748008  0.45901694    -0.15600
F781        F  0.66625127  0.84505313  0.08016761    -0.15600
F782        F  0.61906719  0.79405184  0.05890763    -0.13300
C783        C  0.44166185  0.62285584  0.47522134     0.24700
C784        C  0.46237464  0.64326061  0.49605440    -0.23400
C785        C  0.45238304  0.64408011  0.02702642     0.19600
C786        C  0.42207018  0.62451647  0.03717912     0.24700
C787        C  0.40057323  0.60480238  0.01625576    -0.23300
C788        C  0.41054688  0.60426873  0.48514205     0.19600
F789        F  0.39053640  0.58524785  0.46448437    -0.13300
F790        F  0.45136564  0.62130672  0.44524833    -0.15600
F791        F  0.41316359  0.62571996  0.06734242    -0.15600
F792        F  0.47234097  0.66347022  0.04749399    -0.13300
C793        C  0.52206407  0.75381494  0.09296966     0.24700
C794        C  0.55199628  0.73134508  0.08503822    -0.23400
C795        C  0.56919210  0.71063183  0.10788931     0.19600
C796        C  0.55478567  0.71012862  0.13755007     0.24700
C797        C  0.52353353  0.73087674  0.14482787    -0.23300
C798        C  0.50807372  0.75367164  0.12268669     0.19600
F799        F  0.47748177  0.77324493  0.12906633    -0.13300
F800        F  0.50519562  0.77469534  0.07151825    -0.15600
F801        F  0.57018856  0.68792633  0.15885246    -0.15600
F802        F  0.59795733  0.68866066  0.10100079    -0.13300
C803        C  0.47278653  0.71111773  0.38631157     0.24700
C804        C  0.50256838  0.73319548  0.39446905    -0.23400
C805        C  0.51486280  0.75982657  0.37400142     0.19600
C806        C  0.49966666  0.76208461  0.34467215     0.24700
C807        C  0.47171119  0.73795321  0.33564776    -0.23300
C808        C  0.45732232  0.71360427  0.35718375     0.19600
F809        F  0.43070152  0.68982519  0.34916300    -0.13300
F810        F  0.45995331  0.68566879  0.40611278    -0.15600
F811        F  0.51361570  0.78652531  0.32450078    -0.15600
F812        F  0.54357163  0.78136866  0.38139539    -0.13300
C813        C  0.71391990  0.62384731  0.39840007     0.24700
C814        C  0.70839401  0.63291815  0.36738292    -0.23400
C815        C  0.68768229  0.66423024  0.36037265     0.19600
C816        C  0.66903534  0.68309324  0.38363013     0.24700
C817        C  0.67155055  0.67154921  0.41429577    -0.23300
C818        C  0.69585629  0.64314296  0.42164931     0.19600
F819        F  0.69840910  0.63088922  0.45091280    -0.13300
F820        F  0.73415267  0.59409876  0.40603922    -0.15600
F821        F  0.64598615  0.71066217  0.37590884    -0.15600
F822        F  0.68177486  0.67388657  0.33077670    -0.13300
C823        C  0.68026959  0.56011518  0.04293787     0.24700
C824        C  0.66878927  0.52615158  0.03174856    -0.23400
C825        C  0.63796607  0.52440443  0.01271060     0.19600
C826        C  0.61984265  0.55636094  0.00395030     0.24700
C827        C  0.63193417  0.59057293  0.01447670    -0.23300
C828        C  0.66195797  0.59198243  0.03455097     0.19600
F829        F  0.67466459  0.62433318  0.54520832    -0.13300
F830        F  0.70918708  0.56248302  0.56222434    -0.15600
F831        F  0.59060047  0.55377412  0.98504957    -0.15600
F832        F  0.62616938  0.49187851  0.00166023    -0.13300
Fe833      Fe  0.53521159  0.73730470  0.98795614     1.65800
Fe834      Fe  0.56655180  0.66137157  0.95372264     1.73200
Fe835      Fe  0.62045475  0.70615988  0.50318002     1.54400
O836        O  0.62670428  0.75975671  0.49049698    -0.80500
O837        O  0.59979136  0.62481242  0.97705710    -0.78800
O838        O  0.57032220  0.78168416  0.99561316    -0.83000
O839        O  0.53556226  0.72790992  0.53362186    -0.77900
O840        O  0.65067213  0.68946808  0.96422848    -0.79700
O841        O  0.52308149  0.64375363  0.97895874    -0.82400
C842        C  0.56169620  0.72671161  0.55247917     0.98300
C843        C  0.60481153  0.78572743  0.99624963     1.05800
O844        O  0.57433715  0.70190630  0.98165229    -1.11400
O845        O  0.53166047  0.69075416  0.92592516    -0.73800
O846        O  0.53161669  0.74849322  0.94164841    -0.77300
O847        O  0.59484877  0.72184862  0.54430613    -0.78000
C848        C  0.52340313  0.72410458  0.92218608     0.97300
O849        O  0.49458790  0.69734471  0.48466572    -0.76000
O850        O  0.60990027  0.67760766  0.92748720    -0.81200
C851        C  0.61533694  0.62476995  0.50298613     0.99900
C852        C  0.64257978  0.68140116  0.93649887     1.05800
O853        O  0.61854762  0.65353669  0.51871249    -0.76800
C854        C  0.49519278  0.66255257  0.98592796     1.04100
Fe855      Fe  0.77043949  0.50071144  0.78942848     1.65800
Fe856      Fe  0.69331010  0.53101562  0.82175110     1.73200
Fe857      Fe  0.74001346  0.58700784  0.77550301     1.54400
O858        O  0.79365536  0.59178481  0.78794258    -0.80500
O859        O  0.65787987  0.56690527  0.80020029    -0.78800
O860        O  0.81556022  0.53525372  0.78402602    -0.83000
O861        O  0.76368046  0.50281643  0.74333164    -0.77900
O862        O  0.72495785  0.61510765  0.81609763    -0.79700
O863        O  0.67654930  0.49004959  0.79330255    -0.82400
C864        C  0.76000653  0.52920378  0.72483923     0.98300
C865        C  0.81965931  0.56972114  0.78318879     1.05800
O866        O  0.73496007  0.53998975  0.79543239    -1.11400
O867        O  0.72062392  0.49344533  0.84877519    -0.73800
O868        O  0.77919070  0.49564883  0.83610839    -0.77300
O869        O  0.75393892  0.56212036  0.73345650    -0.78000
C870        C  0.75381696  0.48616187  0.85422289     0.97300
O871        O  0.72968828  0.46049165  0.79062194    -0.76000
O872        O  0.70941182  0.57220447  0.85029393    -0.81200
C873        C  0.65858857  0.58542588  0.77577044     0.99900
C874        C  0.71580491  0.60526379  0.84325494     1.05800
O875        O  0.68732074  0.58857805  0.76008034    -0.76800
C876        C  0.69506520  0.46160112  0.78727052     1.04100
Fe877      Fe  0.53446680  0.22028393  0.73545333     1.65800
Fe878      Fe  0.56532277  0.29640171  0.70228472     1.73200
Fe879      Fe  0.62014744  0.25023311  0.75020117     1.54400
O880        O  0.59474581  0.23579004  0.79170890    -0.80500
O881        O  0.60739417  0.27929663  0.67489886    -0.78800
O882        O  0.53536239  0.22853563  0.78132448    -0.83000
O883        O  0.56934655  0.17514428  0.74232487    -0.77900
O884        O  0.62039428  0.30313314  0.76555139    -0.79700
O885        O  0.52893897  0.26834151  0.67486519    -0.82400
C886        C  0.60383315  0.17068973  0.74253434     0.98300
C887        C  0.56165904  0.23074943  0.79999953     1.05800
O888        O  0.57362771  0.25539069  0.72950554    -1.11400
O889        O  0.52321708  0.31416717  0.72924691    -0.73800
O890        O  0.49393064  0.26118014  0.73262234    -0.77300
O891        O  0.62567445  0.19660276  0.73744642    -0.78000
C892        C  0.49467379  0.29598230  0.73507132     0.97300
O893        O  0.53088827  0.21010943  0.68894096    -0.76000
O894        O  0.60022532  0.33220603  0.72453719    -0.81200
C895        C  0.64019857  0.27351938  0.68298918     0.99900
C896        C  0.61757104  0.33178435  0.74962352     1.05800
O897        O  0.64918004  0.26532406  0.71049344    -0.76800
C898        C  0.52202130  0.23494701  0.67007259     1.04100
Fe899      Fe  0.76550992  0.45560457  0.53990368     1.65800
Fe900      Fe  0.68970620  0.42152400  0.57110178     1.73200
Fe901      Fe  0.73950913  0.36874519  0.52399058     1.54400
O902        O  0.75593783  0.39469513  0.98336882    -0.80500
O903        O  0.70666277  0.37926223  0.59807771    -0.78800
O904        O  0.75904207  0.45454056  0.99355669    -0.83000
O905        O  0.81151730  0.42263014  0.53426710    -0.77900
O906        O  0.68761548  0.36770502  0.50631003    -0.79700
O907        O  0.71561706  0.45783206  0.60015329    -0.82400
C908        C  0.81743939  0.38845554  0.53481953     0.98300
C909        C  0.75953964  0.42791282  0.97496401     1.05800
O910        O  0.73181710  0.41503575  0.54482825    -1.11400
O911        O  0.67147838  0.46375012  0.54469108    -0.73800
O912        O  0.72368862  0.49446646  0.54242589    -0.77300
O913        O  0.79238802  0.36534449  0.53920892    -0.78000
C914        C  0.68909618  0.49283701  0.53986680     0.97300
O915        O  0.77398425  0.45946094  0.58663449    -0.76000
O916        O  0.65631336  0.38687670  0.54660278    -0.81200
C917        C  0.71328447  0.34665476  0.58985254     0.99900
C918        C  0.65790915  0.37115714  0.52077887     1.05800
O919        O  0.72271168  0.33822601  0.56250120    -0.76800
C920        C  0.74840622  0.46688178  0.60530106     1.04100
Fe921      Fe  0.48794878  0.22309279  0.98398700     1.65800
Fe922      Fe  0.45420061  0.29952731  0.95299376     1.73200
Fe923      Fe  0.40245190  0.25204973  0.50192004     1.54400
O924        O  0.39725196  0.19907988  0.48752031    -0.80500
O925        O  0.42043935  0.33436025  0.97746793    -0.78800
O926        O  0.45396486  0.17782602  0.99144764    -0.83000
O927        O  0.48894439  0.23043981  0.53010533    -0.77900
O928        O  0.37097402  0.26921874  0.96387119    -0.79700
O929        O  0.49727994  0.31697904  0.97848806    -0.82400
C930        C  0.46322054  0.23065425  0.54950898     0.98300
C931        C  0.41955960  0.17334680  0.99257440     1.05800
O932        O  0.44794713  0.25795470  0.97979556    -1.11400
O933        O  0.48956984  0.27245691  0.92393389    -0.73800
O934        O  0.49019200  0.21398134  0.93726459    -0.77300
O935        O  0.42979129  0.23545953  0.54203658    -0.78000
C936        C  0.49833180  0.23950736  0.91882531     0.97300
O937        O  0.52753990  0.26409778  0.48010170    -0.76000
O938        O  0.41109473  0.28281428  0.92697101    -0.81200
C939        C  0.40534684  0.33338847  0.50355182     0.99900
C940        C  0.37863800  0.27778614  0.93615403     1.05800
O941        O  0.40301560  0.30423458  0.51887588    -0.76800
C942        C  0.52632386  0.29880646  0.98272227     1.04100
Fe943      Fe  0.25641094  0.46098452  0.79039518     1.65800
Fe944      Fe  0.33258610  0.42759970  0.82169120     1.73200
Fe945      Fe  0.28255050  0.37362410  0.77616291     1.54400
O946        O  0.22973443  0.37137873  0.79134623    -0.80500
O947        O  0.36636625  0.39175571  0.79810025    -0.78800
O948        O  0.21029903  0.42814002  0.78403362    -0.83000
O949        O  0.26406284  0.45921534  0.74440146    -0.77900
O950        O  0.29828853  0.34446073  0.81578948    -0.79700
O951        O  0.35012096  0.46905188  0.79400649    -0.82400
C952        C  0.26332200  0.43242102  0.72601211     0.98300
C953        C  0.20463183  0.39396947  0.78534130     1.05800
O954        O  0.29038393  0.42040207  0.79587902    -1.11400
O955        O  0.30612909  0.46474804  0.84984206    -0.73800
O956        O  0.24747039  0.46519053  0.83704351    -0.77300
O957        O  0.26679848  0.39915680  0.73472376    -0.78000
C958        C  0.27316206  0.47324844  0.85533606     0.97300
O959        O  0.29783312  0.50014817  0.79308607    -0.77600
O960        O  0.31607563  0.38631080  0.85000656    -0.81200
C961        C  0.36435660  0.37366556  0.77339145     0.99900
C962        C  0.30808812  0.35368629  0.84286766     1.05800
O963        O  0.33466797  0.37016782  0.75897821    -0.76800
C964        C  0.33234227  0.49834826  0.78971312     1.04100
Fe965      Fe  0.49011856  0.74150055  0.73800241     1.65800
Fe966      Fe  0.45966925  0.66415752  0.70678690     1.73200
Fe967      Fe  0.40454424  0.71107706  0.75354181     1.54400
O968        O  0.42954307  0.72777123  0.79466311    -0.80500
O969        O  0.41803852  0.68034712  0.67867302    -0.78800
O970        O  0.48871657  0.73623478  0.78422870    -0.83000
O971        O  0.45498923  0.78635132  0.74248721    -0.77900
O972        O  0.40542250  0.65866548  0.77046684    -0.79700
O973        O  0.49683809  0.69045497  0.67915811    -0.82400
C974        C  0.42051779  0.79044135  0.74287364     0.98300
C975        C  0.46240984  0.73408892  0.80293891     1.05800
O976        O  0.45112879  0.70600828  0.73295295    -1.11400
O977        O  0.50093830  0.64752778  0.73479498    -0.73800
O978        O  0.53046132  0.70053450  0.73719465    -0.77300
O979        O  0.39859966  0.76415566  0.73936358    -0.78000
C980        C  0.52937540  0.66589151  0.74056305     0.97300
O981        O  0.49448626  0.74920863  0.69126691    -0.76000
O982        O  0.42445810  0.62947328  0.72926454    -0.81200
C983        C  0.38497188  0.68507150  0.68658778     0.99900
C984        C  0.40824869  0.62972953  0.75483187     1.05800
O985        O  0.37570604  0.69369317  0.71403457    -0.76800
C986        C  0.50384523  0.72352012  0.67338009     1.04100
Fe987      Fe  0.25568365  0.50440686  0.54020019     1.65800
Fe988      Fe  0.33105704  0.53553665  0.57444437     1.73200
Fe989      Fe  0.28581395  0.59015720  0.52611948     1.54400
O990        O  0.27051265  0.56534798  0.98461604    -0.80500
O991        O  0.31328767  0.57731987  0.60190583    -0.78800
O992        O  0.26407418  0.50568478  0.99419793    -0.83000
O993        O  0.21088585  0.53933034  0.53345091    -0.77900
O994        O  0.33861813  0.58878117  0.51034378    -0.79700
O995        O  0.30307298  0.49845937  0.60132870    -0.82400
C996        C  0.20641697  0.57382342  0.53352479     0.98300
C997        C  0.26564813  0.53240479  0.97585791     1.05800
O998        O  0.29047435  0.54363178  0.54679203    -1.11400
O999        O  0.34952020  0.49369240  0.54746260    -0.73800
O1000       O  0.29660907  0.46438593  0.54317140    -0.77300
O1001       O  0.23218605  0.59580503  0.53904513    -0.78000
C1002       C  0.33138597  0.46512277  0.54147932     0.97300
O1003       O  0.24512041  0.50002402  0.58661298    -0.76000
O1004       O  0.36663033  0.57117490  0.55267498    -0.81200
C1005       C  0.30952197  0.61035323  0.59360824     0.99900
C1006       C  0.36688510  0.58678822  0.52678388     1.05800
O1007       O  0.30199532  0.61928959  0.56589579    -0.76800
C1008       C  0.26974552  0.49091085  0.60559277     1.04100
Fe1009     Fe  0.03489416  0.24173816  0.73813135     1.65800
Fe1010     Fe  0.06756122  0.16613833  0.70466941     1.73200
Fe1011     Fe  0.12176809  0.21383811  0.75174890     1.54400
O1012       O  0.12542564  0.26681972  0.73690576    -0.80500
O1013       O  0.10269800  0.13134691  0.72794694    -0.78800
O1014       O  0.06885013  0.28718262  0.74427720    -0.83000
O1015       O  0.03701126  0.23392681  0.78415465    -0.77900
O1016       O  0.15114535  0.19658800  0.71273874    -0.79700
O1017       O  0.02572048  0.14777033  0.73154022    -0.82400
C1018       C  0.06407742  0.23419887  0.80217173     0.98300
C1019       C  0.10314201  0.29228699  0.74301757     1.05800
O1020       O  0.07495733  0.20740032  0.73170920    -1.11400
O1021       O  0.03080894  0.19369667  0.67689263    -0.73800
O1022       O  0.02994908  0.25176129  0.69166213    -0.77300
O1023       O  0.09704447  0.23031846  0.79309102    -0.78000
C1024       C  0.02212825  0.22686677  0.67253537     0.97300
O1025       O  0.99536205  0.20030755  0.73584380    -0.76000
O1026       O  0.10951253  0.18317945  0.67711809    -0.81200
C1027       C  0.11948527  0.13239129  0.75331911     0.99900
C1028       C  0.14238164  0.18761948  0.68540256     1.05800
O1029       O  0.12274791  0.16158956  0.76854799    -0.76800
C1030       C  0.99694343  0.16552813  0.73790822     1.04100
Fe1031     Fe  0.26894367  0.00271590  0.54009213     1.65800
Fe1032     Fe  0.19134562  0.03452872  0.57053584     1.73200
Fe1033     Fe  0.24140185  0.08978037  0.52632415     1.54400
O1034       O  0.29358795  0.09296156  0.54277967    -0.80500
O1035       O  0.15785553  0.06972475  0.54644119    -0.78800
O1036       O  0.31452917  0.03671406  0.53519215    -0.83000
O1037       O  0.26320806  0.00498043  0.99390594    -0.77900
O1038       O  0.22348260  0.11852004  0.56555656    -0.79700
O1039       O  0.17518654  0.99313106  0.54239310    -0.82400
C1040       C  0.26306029  0.03227134  0.97608286     0.98300
C1041       C  0.31938056  0.07101582  0.53695628     1.05800
O1042       O  0.23406514  0.04261682  0.54544652    -1.11400
O1043       O  0.21751650  0.99773360  0.59908046    -0.73800
O1044       O  0.27639775  0.99822606  0.58690548    -0.77300
O1045       O  0.25895016  0.06522325  0.98526067    -0.78000
C1046       C  0.25054920  0.99015187  0.60506169     0.97300
O1047       O  0.22784233  0.96277550  0.54111755    -0.76000
O1048       O  0.20609830  0.07603726  0.59925530    -0.81200
C1049       C  0.15993470  0.08738761  0.52158409     0.99900
C1050       C  0.21318335  0.10894651  0.59239579     1.05800
O1051       O  0.18995025  0.09162060  0.50777283    -0.76800
C1052       C  0.19330519  0.96422397  0.53739810     1.04100
Fe1053     Fe  0.03193354  0.72376870  0.98761707     1.65800
Fe1054     Fe  0.06213398  0.79966108  0.95388053     1.73200
Fe1055     Fe  0.11784095  0.75334810  0.50058499     1.54400
O1056       O  0.09379031  0.73636895  0.54224916    -0.80500
O1057       O  0.10347753  0.78283549  0.92587266    -0.78800
O1058       O  0.03386084  0.73228400  0.53340665    -0.83000
O1059       O  0.06724072  0.67894860  0.99382206    -0.77900
O1060       O  0.11722572  0.80571851  0.51724190    -0.79700
O1061       O  0.02528123  0.77138859  0.92686119    -0.82400
C1062       C  0.10164684  0.67451609  0.99191398     0.98300
C1063       C  0.06089789  0.73195223  0.55141644     1.05800
O1064       O  0.07087898  0.75873276  0.98088583    -1.11400
O1065       O  0.02081814  0.81734085  0.98133891    -0.73800
O1066       O  0.99135353  0.76453314  0.98516032    -0.77300
O1067       O  0.12301955  0.70051146  0.98577167    -0.78000
C1068       C  0.99229590  0.79934807  0.98734207     0.97300
O1069       O  0.02746769  0.71329952  0.94134220    -0.76000
O1070       O  0.09744971  0.83509883  0.97619255    -0.81200
C1071       C  0.13661468  0.77837525  0.93342339     0.99900
C1072       C  0.11446047  0.83455258  0.50148418     1.05800
O1073       O  0.14620331  0.77049589  0.96086793    -0.76800
C1074       C  0.01827099  0.73789772  0.92239377     1.04100
Fe1075     Fe  0.26847054  0.96100502  0.79097096     1.65800
Fe1076     Fe  0.19209356  0.92848423  0.82292251     1.73200
Fe1077     Fe  0.24098931  0.87446184  0.77608900     1.54400
O1078       O  0.25688810  0.90013840  0.73512356    -0.80500
O1079       O  0.20758572  0.88547835  0.85013089    -0.78800
O1080       O  0.26030526  0.96007304  0.74495221    -0.83000
O1081       O  0.31384524  0.92717992  0.78404968    -0.77900
O1082       O  0.18915660  0.87300136  0.75889909    -0.79700
O1083       O  0.21983691  0.96366978  0.85166125    -0.82400
C1084       C  0.31901510  0.89290292  0.78515055     0.98300
C1085       C  0.25994025  0.93335609  0.72649300     1.05800
O1086       O  0.23394687  0.92103874  0.79653996    -1.11400
O1087       O  0.17500542  0.97164329  0.79668086    -0.73800
O1088       O  0.22783603  0.00102050  0.79421872    -0.77300
O1089       O  0.29369583  0.87078171  0.79130984    -0.78000
C1090       C  0.19323627  0.00034859  0.79155694     0.97300
O1091       O  0.27812060  0.96467897  0.83751364    -0.76000
O1092       O  0.15753514  0.89445541  0.79839643    -0.81200
C1093       C  0.21356414  0.85279797  0.84172867     0.99900
C1094       C  0.15960383  0.87661292  0.77351943     1.05800
O1095       O  0.22394044  0.84445990  0.81462990    -0.76800
C1096       C  0.25284702  0.97239231  0.85641234     1.04100
Fe1097     Fe  0.99167795  0.72091459  0.73806988     1.65800
Fe1098     Fe  0.95993868  0.79750314  0.70543990     1.73200
Fe1099     Fe  0.90519308  0.74972133  0.75172615     1.54400
O1100       O  0.90076252  0.69762589  0.73493163    -0.80500
O1101       O  0.92596588  0.83234325  0.73012441    -0.78800
O1102       O  0.95663177  0.67597458  0.74342724    -0.83000
O1103       O  0.98940643  0.72825943  0.78412104    -0.77900
O1104       O  0.87578012  0.76956985  0.71352634    -0.79700
O1105       O  0.00222517  0.81453003  0.73181768    -0.82400
C1106       C  0.96209698  0.72728311  0.80188314     0.98300
C1107       C  0.92229705  0.67149286  0.74099901     1.05800
O1108       O  0.95214506  0.75589510  0.73188055    -1.11400
O1109       O  0.99577668  0.76968898  0.67694274    -0.73800
O1110       O  0.99679414  0.71151419  0.69158784    -0.77300
O1111       O  0.92925737  0.73077190  0.79249886    -0.78000
C1112       C  0.00440876  0.73650661  0.67251669     0.97300
O1113       O  0.03195733  0.76177025  0.73620959    -0.76000
O1114       O  0.91755088  0.78210381  0.67791700    -0.81200
C1115       C  0.90985340  0.83083419  0.75586325     0.99900
C1116       C  0.88459989  0.77886012  0.68628087     1.05800
O1117       O  0.90594261  0.80114525  0.77025748    -0.76800
C1118       C  0.03093057  0.79662436  0.73776462     1.04100
Fe1119     Fe  0.75205690  0.96215798  0.54010949     1.65800
Fe1120     Fe  0.83064932  0.93339756  0.57117485     1.73200
Fe1121     Fe  0.78199936  0.87551036  0.52808474     1.54400
O1122       O  0.73005839  0.87106856  0.54473574    -0.80500
O1123       O  0.86509376  0.89799738  0.54782945    -0.78800
O1124       O  0.70726241  0.92640916  0.53640650    -0.83000
O1125       O  0.75786650  0.95825393  0.99387156    -0.77900
O1126       O  0.80085246  0.84864413  0.56778874    -0.79700
O1127       O  0.84556149  0.97451448  0.54215990    -0.82400
C1128       C  0.75915152  0.93058377  0.97642043     0.98300
C1129       C  0.70348186  0.89195745  0.53886971     1.05800
O1130       O  0.78804188  0.92342956  0.54634646    -1.11400
O1131       O  0.80371412  0.97063316  0.59891831    -0.73800
O1132       O  0.74478474  0.96871149  0.58695323    -0.77300
O1133       O  0.76397934  0.89803344  0.98630066    -0.78000
C1134       C  0.77059178  0.97795106  0.60479151     0.97300
O1135       O  0.79208334  0.00336979  0.53986064    -0.76000
O1136       O  0.81711425  0.89221449  0.60096171    -0.81200
C1137       C  0.86301007  0.87901741  0.52360284     0.99900
C1138       C  0.81125327  0.85892258  0.59440809     1.05800
O1139       O  0.83326053  0.87450589  0.50961031    -0.76800
C1140       C  0.82676002  0.00283754  0.53656706     1.04100
Fe1141     Fe  0.99220897  0.24175889  0.98756361     1.65800
Fe1142     Fe  0.95861215  0.16688580  0.95395138     1.73200
Fe1143     Fe  0.90545539  0.21430726  0.50205304     1.54400
O1144       O  0.93086311  0.23051734  0.54316032    -0.80500
O1145       O  0.91640462  0.18485496  0.92709043    -0.78800
O1146       O  0.99079995  0.23363915  0.53367725    -0.83000
O1147       O  0.95844073  0.28733281  0.99437363    -0.77900
O1148       O  0.90410411  0.16183474  0.51862369    -0.79700
O1149       O  0.99522348  0.19418630  0.92611880    -0.82400
C1150       C  0.92414479  0.29240512  0.99310818     0.98300
C1151       C  0.96392594  0.23417143  0.55198331     1.05800
O1152       O  0.95197909  0.20771707  0.98149191    -1.11400
O1153       O  0.00083131  0.14793362  0.98004663    -0.73800
O1154       O  0.03154637  0.20014565  0.98412767    -0.77300
O1155       O  0.90206408  0.26705064  0.98689392    -0.78000
C1156       C  0.02992489  0.16537988  0.98550082     0.97300
O1157       O  0.99661477  0.25212644  0.94113421    -0.76000
O1158       O  0.92318838  0.13244953  0.97717808    -0.81200
C1159       C  0.88362753  0.18882735  0.93594197     0.99900
C1160       C  0.90610797  0.13315826  0.50249648     1.05800
O1161       O  0.87537092  0.19746384  0.96347666    -0.76800
C1162       C  0.00441407  0.22717161  0.92198059     1.04100
Fe1163     Fe  0.75960159  0.00183220  0.79047484     1.65800
Fe1164     Fe  0.83432454  0.03398187  0.82540081     1.73200
Fe1165     Fe  0.78598490  0.08910292  0.77880090     1.54400
O1166       O  0.77091672  0.06517720  0.73668942    -0.80500
O1167       O  0.81706956  0.07569271  0.85341160    -0.78800
O1168       O  0.76919112  0.00487463  0.74470689    -0.83000
O1169       O  0.71363241  0.03554624  0.78366025    -0.77900
O1170       O  0.83854720  0.09129613  0.76276792    -0.79700
O1171       O  0.80610826  0.99695260  0.85260870    -0.82400
C1172       C  0.70766712  0.06972874  0.78581016     0.98300
C1173       C  0.76809345  0.03230347  0.72704580     1.05800
O1174       O  0.79321558  0.04188409  0.79811820    -1.11400
O1175       O  0.85338307  0.99200956  0.79867593    -0.73800
O1176       O  0.80099418  0.96227410  0.79353946    -0.77300
O1177       O  0.73257735  0.09195347  0.79292997    -0.78000
C1178       C  0.83578922  0.96315848  0.79274044     0.97300
O1179       O  0.74847584  0.99603402  0.83662500    -0.76000
O1180       O  0.86933655  0.06951141  0.80247231    -0.81200
C1181       C  0.81052384  0.10854738  0.84583324     0.99900
C1182       C  0.86793177  0.08757846  0.77765109     1.05800
O1183       O  0.80124274  0.11761562  0.81864130    -0.76800
C1184       C  0.77290401  0.98796902  0.85615000     1.04100
C1185       C  0.83962802  0.16732406  0.86056233     0.24700
C1186       C  0.81822370  0.13715688  0.86893333    -0.23400
C1187       C  0.81179984  0.13055752  0.90024650     0.19600
C1188       C  0.82955279  0.15131055  0.92266737     0.24700
C1189       C  0.85477777  0.17825772  0.91407895    -0.23300
C1190       C  0.85817937  0.18735167  0.88294495     0.19600
F1191       F  0.88203255  0.21351458  0.87404105    -0.13300
F1192       F  0.84634116  0.17456303  0.83060538    -0.15600
F1193       F  0.82562711  0.14189366  0.95256384    -0.15600
F1194       F  0.79069878  0.10209076  0.90911853    -0.13300
C1195       C  0.87998501  0.03379146  0.51168273     0.24700
C1196       C  0.84626335  0.03642978  0.52708064    -0.23400
C1197       C  0.83262421  0.07126859  0.53457856     0.19600
C1198       C  0.85260421  0.10266509  0.52745486     0.24700
C1199       C  0.88646959  0.09989652  0.51232839    -0.23300
C1200       C  0.89970574  0.06514508  0.50428951     0.19600
F1201       F  0.93204193  0.06140603  0.48941058    -0.13300
F1202       F  0.89367803  0.00080588  0.50324695    -0.15600
F1203       F  0.83820775  0.13583486  0.53444968    -0.15600
F1204       F  0.80022173  0.07504405  0.54934292    -0.13300
C1205       C  0.78238326  0.92348128  0.92300595     0.24700
C1206       C  0.75625284  0.93778544  0.94325656    -0.23400
C1207       C  0.73155369  0.96447087  0.93260828     0.19600
C1208       C  0.73495396  0.97886457  0.90307227     0.24700
C1209       C  0.76354570  0.96730992  0.88404055    -0.23300
C1210       C  0.78621891  0.93838154  0.89367870     0.19600
F1211       F  0.81320982  0.92570540  0.87514504    -0.13300
F1212       F  0.80639036  0.89758285  0.93254471    -0.15600
F1213       F  0.71237289  0.00628113  0.89412333    -0.15600
F1214       F  0.70541297  0.97810902  0.95150226    -0.13300
C1215       C  0.73939704  0.98281630  0.65534288     0.24700
C1216       C  0.76329470  0.99754739  0.63366858    -0.23400
C1217       C  0.78497473  0.02774979  0.64179383     0.19600
C1218       C  0.78452835  0.04139255  0.67178242     0.24700
C1219       C  0.76294150  0.02448598  0.69414235    -0.23300
C1220       C  0.73931957  0.99606730  0.68536748     0.19600
F1221       F  0.71738366  0.97986762  0.70636390    -0.13300
F1222       F  0.71863270  0.95343599  0.64824175    -0.15600
F1223       F  0.80738237  0.06896251  0.67948442    -0.15600
F1224       F  0.80800206  0.04280396  0.62100869    -0.13300
C1225       C  0.83173603  0.81833817  0.67209270     0.24700
C1226       C  0.85642362  0.79045686  0.66400959    -0.23400
C1227       C  0.86006680  0.78087196  0.63295501     0.19600
C1228       C  0.84191820  0.80085983  0.61020458     0.24700
C1229       C  0.82040026  0.83133955  0.61809523    -0.23300
C1230       C  0.81418418  0.83886450  0.64930958     0.19600
F1231       F  0.79315633  0.86778519  0.65770199    -0.13300
F1232       F  0.82791478  0.82857337  0.70182359    -0.15600
F1233       F  0.84881686  0.79296966  0.58036789    -0.15600
F1234       F  0.88360064  0.75398769  0.62450339    -0.13300
C1235       C  0.85908769  0.86287721  0.78304298     0.24700
C1236       C  0.89318943  0.86445611  0.76837466    -0.23400
C1237       C  0.90944903  0.89862419  0.76351468     0.19600
C1238       C  0.89133218  0.93073837  0.77213925     0.24700
C1239       C  0.85621635  0.92926260  0.78526589    -0.23300
C1240       C  0.84068749  0.89490901  0.79116773     0.19600
F1241       F  0.80755883  0.89217762  0.80485862    -0.13300
F1242       F  0.84265047  0.83032729  0.78821803    -0.15600
F1243       F  0.90769542  0.96324674  0.76665603    -0.15600
F1244       F  0.94289327  0.90093511  0.75029526    -0.13300
C1245       C  0.09247869  0.87376000  0.76406394     0.24700
C1246       C  0.12702004  0.85740622  0.76228499    -0.23400
C1247       C  0.13006395  0.82119080  0.75185260     0.19600
C1248       C  0.09897759  0.80132560  0.74400791     0.24700
C1249       C  0.06414798  0.81742485  0.74614471    -0.23300
C1250       C  0.06137659  0.85416771  0.75583883     0.19600
F1251       F  0.02850352  0.87117387  0.75794698    -0.13300
F1252       F  0.08885085  0.90888145  0.77357374    -0.15600
F1253       F  0.10314639  0.76640702  0.73415837    -0.15600
F1254       F  0.16312055  0.80443987  0.75045905    -0.13300
C1255       C  0.92422017  0.80508772  0.49134283     0.24700
C1256       C  0.95905640  0.81984047  0.49626935    -0.23400
C1257       C  0.96190955  0.85503811  0.00916699     0.19600
C1258       C  0.93067149  0.87471876  0.51727801     0.24700
C1259       C  0.89593286  0.85986820  0.51247324    -0.23300
C1260       C  0.89298447  0.82494408  0.49924002     0.19600
F1261       F  0.85986093  0.80932990  0.49502846    -0.13300
F1262       F  0.92022235  0.77152879  0.47860100    -0.15600
F1263       F  0.93445892  0.90842994  0.02979767    -0.15600
F1264       F  0.99497621  0.87021447  0.01463596    -0.13300
C1265       C  0.21470015  0.82566649  0.89428566     0.24700
C1266       C  0.20341956  0.82379984  0.86356477    -0.23400
C1267       C  0.17499117  0.80005576  0.85564504     0.19600
C1268       C  0.15550776  0.78171028  0.87844344     0.24700
C1269       C  0.16431905  0.78652618  0.90960486    -0.23300
C1270       C  0.19557579  0.80681165  0.91714254     0.19600
F1271       F  0.20503614  0.81200119  0.94686741    -0.13300
F1272       F  0.24235919  0.84815395  0.90243346    -0.15600
F1273       F  0.12584876  0.76192272  0.87022084    -0.15600
F1274       F  0.16294740  0.79833568  0.82627909    -0.13300
C1275       C  0.05571877  0.74795549  0.63663659     0.24700
C1276       C  0.02421275  0.72801890  0.64410995    -0.23400
C1277       C  0.00887158  0.70473517  0.62229813     0.19600
C1278       C  0.02271042  0.70408184  0.59247562     0.24700
C1279       C  0.05245246  0.72639507  0.58418424    -0.23300
C1280       C  0.07006691  0.74680196  0.60693212     0.19600
F1281       F  0.09910010  0.76804082  0.59984911    -0.13300
F1282       F  0.07139991  0.77007636  0.65777543    -0.15600
F1283       F  0.00576184  0.68306301  0.57122660    -0.15600
F1284       F  0.97855530  0.68518619  0.62907794    -0.13300
C1285       C  0.01204947  0.70204796  0.87410575     0.24700
C1286       C  0.99838515  0.72854844  0.89426879    -0.23400
C1287       C  0.96815898  0.74989619  0.88548689     0.19600
C1288       C  0.95367332  0.74687701  0.85602590     0.24700
C1289       C  0.96982441  0.72309986  0.83477324    -0.23300
C1290       C  0.99806146  0.69955128  0.84439999     0.19600
F1291       F  0.01342889  0.67552682  0.82446233    -0.13300
F1292       F  0.04100488  0.68096759  0.88218241    -0.15600
F1293       F  0.92623098  0.76962822  0.84743277    -0.15600
F1294       F  0.95391545  0.77509612  0.90498604    -0.13300
C1295       C  0.14064574  0.93400144  0.51111268     0.24700
C1296       C  0.17322019  0.93107412  0.52803769    -0.23400
C1297       C  0.18559409  0.89629169  0.53685232     0.19600
C1298       C  0.16580083  0.86512290  0.52906864     0.24700
C1299       C  0.13339076  0.86796342  0.51192507    -0.23300
C1300       C  0.12105537  0.90277528  0.50300463     0.19600
F1301       F  0.08986994  0.90669192  0.48657755    -0.13300
F1302       F  0.12810231  0.96709211  0.50178082    -0.15600
F1303       F  0.17910637  0.83201000  0.53752909    -0.15600
F1304       F  0.21659212  0.89238683  0.55351246    -0.13300
C1305       C  0.09186832  0.09379356  0.51987227     0.24700
C1306       C  0.12646000  0.10503414  0.50950935    -0.23400
C1307       C  0.12869368  0.13542278  0.98982033     0.19600
C1308       C  0.09732000  0.15516833  0.98208209     0.24700
C1309       C  0.06305323  0.14443785  0.49323764    -0.23300
C1310       C  0.06054484  0.11318105  0.51167296     0.19600
F1311       F  0.02782406  0.10219146  0.52285747    -0.13300
F1312       F  0.08823883  0.06424052  0.53833942    -0.15600
F1313       F  0.10046487  0.18471498  0.96355410    -0.15600
F1314       F  0.16133130  0.14699246  0.97890030    -0.13300
C1315       C  0.29070737  0.98501081  0.90309304     0.24700
C1316       C  0.26050944  0.99319001  0.88458277    -0.23400
C1317       C  0.23489381  0.01937372  0.89466910     0.19600
C1318       C  0.23784972  0.03499689  0.92367844     0.24700
C1319       C  0.26610356  0.02430953  0.94324112    -0.23300
C1320       C  0.29320287  0.00012281  0.93248988     0.19600
F1321       F  0.32098258  0.98969789  0.95110508    -0.13300
F1322       F  0.31607037  0.96028539  0.89378935    -0.15600
F1323       F  0.21114311  0.05782523  0.93374795    -0.15600
F1324       F  0.20591973  0.02860479  0.87690777    -0.13300
C1325       C  0.23430203  0.94279335  0.64351904     0.24700
C1326       C  0.25782403  0.97094151  0.63405201    -0.23400
C1327       C  0.28514794  0.98305127  0.65399584     0.19600
C1328       C  0.28727085  0.96900690  0.68372191     0.24700
C1329       C  0.26250541  0.94222732  0.69369274    -0.23300
C1330       C  0.23684142  0.92831789  0.67304268     0.19600
F1331       F  0.21228281  0.90294074  0.68222298    -0.13300
F1332       F  0.20785072  0.93031359  0.62450334    -0.15600
F1333       F  0.31255295  0.98265800  0.70326867    -0.15600
F1334       F  0.30783543  0.01045110  0.64557997    -0.13300
C1335       C  0.96736176  0.11204940  0.76390534     0.24700
C1336       C  0.96408003  0.14499159  0.74746847    -0.23400
C1337       C  0.92907648  0.15800784  0.74013212     0.19600
C1338       C  0.89803380  0.13885357  0.74930753     0.24700
C1339       C  0.90118560  0.10629460  0.76631497    -0.23300
C1340       C  0.93625600  0.09310125  0.77347667     0.19600
F1341       F  0.94053247  0.06170186  0.78958513    -0.13300
F1342       F  0.00071522  0.09858048  0.77143225    -0.15600
F1343       F  0.86478925  0.15295482  0.74230503    -0.15600
F1344       F  0.92480874  0.18909892  0.72360692    -0.13300
C1345       C  0.02902396  0.26408002  0.84426828     0.24700
C1346       C  0.05578899  0.23863722  0.83497221    -0.23400
C1347       C  0.06969912  0.21376438  0.85635329     0.19600
C1348       C  0.05433082  0.21177484  0.88559566     0.24700
C1349       C  0.02549019  0.23523722  0.89408513    -0.23300
C1350       C  0.01422263  0.26263218  0.87379419     0.19600
F1351       F  0.98671987  0.28577534  0.88153508    -0.13300
F1352       F  0.01583964  0.28907734  0.82414134    -0.15600
F1353       F  0.06624674  0.18552001  0.90512405    -0.15600
F1354       F  0.09567188  0.18915037  0.84806462    -0.13300
C1355       C  0.95708902  0.21527395  0.60664279     0.24700
C1356       C  0.97246299  0.23865788  0.58481529    -0.23400
C1357       C  0.00018678  0.26293444  0.59390583     0.19600
C1358       C  0.01457430  0.26143808  0.62357439     0.24700
C1359       C  0.00174411  0.23532592  0.64433728    -0.23300
C1360       C  0.97192016  0.21332442  0.63609559     0.19600
F1361       F  0.95833704  0.18860319  0.65619964    -0.13300
F1362       F  0.92990023  0.19209760  0.59873153    -0.15600
F1363       F  0.04300666  0.28326754  0.63110899    -0.15600
F1364       F  0.01446344  0.28698090  0.57356368    -0.13300
C1365       C  0.16847173  0.18839522  0.63245317     0.24700
C1366       C  0.17086987  0.17700314  0.66313623    -0.23400
C1367       C  0.19425056  0.14788126  0.67057997     0.19600
C1368       C  0.21132904  0.12769717  0.64739691     0.24700
C1369       C  0.20593119  0.13673509  0.61638059    -0.23300
C1370       C  0.18626123  0.16867558  0.60922676     0.19600
F1371       F  0.18058573  0.17831180  0.57959806    -0.13300
F1372       F  0.14641829  0.21677683  0.62475935    -0.15600
F1373       F  0.23049994  0.09728903  0.65513406    -0.15600
F1374       F  0.19674439  0.13593178  0.69993965    -0.13300
C1375       C  0.18981282  0.06862425  0.78739613     0.24700
C1376       C  0.17373005  0.03422959  0.78264654    -0.23400
C1377       C  0.13899239  0.03259728  0.76894507     0.19600
C1378       C  0.12106747  0.06454215  0.75983944     0.24700
C1379       C  0.13718230  0.09877751  0.76465370    -0.23300
C1380       C  0.17165319  0.10052337  0.77860976     0.19600
F1381       F  0.18855186  0.13308541  0.78258391    -0.13300
F1382       F  0.22316388  0.07155950  0.80062192    -0.15600
F1383       F  0.08783404  0.06198566  0.74636199    -0.15600
F1384       F  0.12270246  0.00003357  0.76349952    -0.13300
C1385       C  0.12083421  0.63111999  0.53239754     0.24700
C1386       C  0.11872982  0.63959459  0.50096877    -0.23400
C1387       C  0.14123605  0.62066799  0.98034161     0.19600
C1388       C  0.16709512  0.59552061  0.99113925     0.24700
C1389       C  0.17167420  0.58983744  0.52281343    -0.23300
C1390       C  0.14754102  0.60683747  0.54328907     0.19600
F1391       F  0.15172769  0.60216633  0.57390615    -0.13300
F1392       F  0.09989438  0.64958961  0.55290075    -0.15600
F1393       F  0.19020978  0.57951742  0.97082229    -0.15600
F1394       F  0.14017998  0.62875197  0.95001949    -0.13300
C1395       C  0.38404254  0.84675552  0.73191120     0.24700
C1396       C  0.40449824  0.82557417  0.75240329    -0.23400
C1397       C  0.40169083  0.83257900  0.78403980     0.19600
C1398       C  0.37600954  0.85767200  0.79518336     0.24700
C1399       C  0.35383438  0.87709389  0.77477706    -0.23300
C1400       C  0.35943239  0.87297371  0.74304032     0.19600
F1401       F  0.33799755  0.89130567  0.72287009    -0.13300
F1402       F  0.38561137  0.83991626  0.70138742    -0.15600
F1403       F  0.37058966  0.86068500  0.82583570    -0.15600
F1404       F  0.42076938  0.81196979  0.80432457    -0.13300
C1405       C  0.36343314  0.68403585  0.63219750     0.24700
C1406       C  0.35689770  0.67620886  0.66329637    -0.23400
C1407       C  0.32824696  0.65242970  0.67082584     0.19600
C1408       C  0.30970861  0.63342194  0.64771442     0.24700
C1409       C  0.31872296  0.63867657  0.61665509    -0.23300
C1410       C  0.34411030  0.66588337  0.60910367     0.19600
F1411       F  0.35346735  0.67177224  0.57944263    -0.13300
F1412       F  0.39074148  0.70702559  0.62413028    -0.15600
F1413       F  0.28502599  0.60764102  0.65578552    -0.15600
F1414       F  0.32117833  0.64417432  0.70054536    -0.13300
C1415       C  0.14840911  0.35809093  0.79605192     0.24700
C1416       C  0.16939185  0.37864423  0.77557220    -0.23400
C1417       C  0.16253506  0.37564723  0.74392879     0.19600
C1418       C  0.13791340  0.34960870  0.73283543     0.24700
C1419       C  0.11880959  0.32724294  0.75328216    -0.23300
C1420       C  0.12282811  0.33302649  0.78499750     0.19600
F1421       F  0.10510471  0.31135247  0.80527917    -0.13300
F1422       F  0.15499613  0.35996956  0.82659394    -0.15600
F1423       F  0.13503987  0.34410174  0.70219754    -0.15600
F1424       F  0.18291274  0.39480476  0.72361034    -0.13300
C1425       C  0.36305814  0.59665406  0.78797888     0.24700
C1426       C  0.39077510  0.59559292  0.76560207    -0.23400
C1427       C  0.39948310  0.56181787  0.75175610     0.19600
C1428       C  0.38071520  0.53016396  0.75985750     0.24700
C1429       C  0.35246945  0.53162588  0.78151392    -0.23300
C1430       C  0.34385127  0.56505476  0.79554913     0.19600
F1431       F  0.31697637  0.56709012  0.81687574    -0.13300
F1432       F  0.35359811  0.62843348  0.80193406    -0.15600
F1433       F  0.38925127  0.49827054  0.74564008    -0.15600
F1434       F  0.42592443  0.55929959  0.73005964    -0.13300
C1435       C  0.23775527  0.48638277  0.65563540     0.24700
C1436       C  0.26077339  0.47073576  0.63367255    -0.23400
C1437       C  0.28032186  0.43870920  0.64090476     0.19600
C1438       C  0.27884536  0.42398755  0.67046528     0.24700
C1439       C  0.25836589  0.44161212  0.69330116    -0.23300
C1440       C  0.23663087  0.47204455  0.68526145     0.19600
F1441       F  0.21574513  0.48918165  0.70661498    -0.13300
F1442       F  0.21903720  0.51749799  0.64925277    -0.15600
F1443       F  0.29988748  0.39456622  0.67736628    -0.15600
F1444       F  0.30245884  0.42289423  0.61972349    -0.13300
C1445       C  0.28873366  0.53606396  0.92235855     0.24700
C1446       C  0.26233905  0.52375344  0.94305118    -0.23400
C1447       C  0.23603597  0.49840936  0.93313713     0.19600
C1448       C  0.23760850  0.48381638  0.90352665     0.24700
C1449       C  0.26600949  0.49377172  0.88376993    -0.23300
C1450       C  0.29081723  0.52089836  0.89306147     0.19600
F1451       F  0.31827800  0.53145148  0.87422479    -0.13300
F1452       F  0.31449382  0.56029335  0.93136965    -0.15600
F1453       F  0.21331613  0.45781771  0.89513834    -0.15600
F1454       F  0.20982878  0.48653007  0.95267256    -0.13300
C1455       C  0.37144075  0.11231118  0.54789120     0.24700
C1456       C  0.35465448  0.08728940  0.52822009    -0.23400
C1457       C  0.36537165  0.08621990  0.99719455     0.19600
C1458       C  0.38956661  0.11238516  0.98545736     0.24700
C1459       C  0.40414699  0.13914441  0.50480735    -0.23300
C1460       C  0.39630729  0.13769042  0.53636533     0.19600
F1461       F  0.40982804  0.16334226  0.55561665    -0.13300
F1462       F  0.36128884  0.11426224  0.57775725    -0.15600
F1463       F  0.39624158  0.11352334  0.95490405    -0.15600
F1464       F  0.34899768  0.06275466  0.97752326    -0.13300
C1465       C  0.32407000  0.31404742  0.92113352     0.24700
C1466       C  0.34945292  0.28649344  0.91395200    -0.23400
C1467       C  0.35340682  0.27558849  0.88321427     0.19600
C1468       C  0.33570674  0.29478048  0.85976506     0.24700
C1469       C  0.31428481  0.32558931  0.86671014    -0.23300
C1470       C  0.30687445  0.33369829  0.89765768     0.19600
F1471       F  0.28566728  0.36286016  0.90510217    -0.13300
F1472       F  0.31968684  0.32526161  0.95056343    -0.15600
F1473       F  0.34349212  0.28624299  0.83020919    -0.15600
F1474       F  0.37739068  0.24871241  0.87569406    -0.13300
C1475       C  0.40407120  0.40116539  0.51022215     0.24700
C1476       C  0.38818699  0.36691968  0.51550070    -0.23400
C1477       C  0.35408457  0.36509887  0.53007981     0.19600
C1478       C  0.33572786  0.39697479  0.53859791     0.24700
C1479       C  0.35129045  0.43138551  0.53297710    -0.23300
C1480       C  0.38595164  0.43311773  0.51910112     0.19600
F1481       F  0.40189256  0.46574670  0.51319687    -0.13300
F1482       F  0.43715406  0.40368565  0.99641520    -0.15600
F1483       F  0.30270209  0.39404652  0.55242287    -0.15600
F1484       F  0.33764102  0.33245025  0.53481129    -0.13300
C1485       C  0.86191146  0.37326452  0.99428317     0.24700
C1486       C  0.85338545  0.37425418  0.52572034    -0.23400
C1487       C  0.87466670  0.35412365  0.54631129     0.19600
C1488       C  0.90241610  0.33122631  0.53537594     0.24700
C1489       C  0.90800647  0.32695653  0.50366239    -0.23300
C1490       C  0.88861297  0.34919247  0.98324932     0.19600
F1491       F  0.89309798  0.34507012  0.95258106    -0.13300
F1492       F  0.84134727  0.39228851  0.97392416    -0.15600
F1493       F  0.92070407  0.30976530  0.55554324    -0.15600
F1494       F  0.86652306  0.35424000  0.57663823    -0.13300
C1495       C  0.62572066  0.32523285  0.48785594     0.24700
C1496       C  0.62413686  0.35511118  0.50815565    -0.23400
C1497       C  0.58981794  0.36765356  0.51828114     0.19600
C1498       C  0.55801557  0.34977135  0.00944640     0.24700
C1499       C  0.55983564  0.31874156  0.99057823    -0.23300
C1500       C  0.59386291  0.30702198  0.47940215     0.19600
F1501       F  0.59630183  0.27796433  0.46018793    -0.13300
F1502       F  0.65814956  0.31263460  0.47708669    -0.15600
F1503       F  0.52551445  0.36197626  0.02042131    -0.15600
F1504       F  0.58693821  0.39707605  0.53707033    -0.13300
C1505       C  0.66494491  0.08769115  0.74425332     0.24700
C1506       C  0.67234320  0.08551606  0.77587641    -0.23400
C1507       C  0.65121167  0.10649121  0.79615953     0.19600
C1508       C  0.62492477  0.13099738  0.78492012     0.24700
C1509       C  0.62023701  0.13593423  0.75316333    -0.23300
C1510       C  0.63963642  0.11324362  0.73294656     0.19600
F1511       F  0.63629032  0.11790902  0.70225119    -0.13300
F1512       F  0.68523862  0.06803601  0.72406713    -0.15600
F1513       F  0.60689469  0.15288538  0.80500651    -0.15600
F1514       F  0.65800888  0.10531138  0.82669006    -0.13300
C1515       C  0.43220308  0.36980898  0.76702715     0.24700
C1516       C  0.39750531  0.35486943  0.76192997    -0.23400
C1517       C  0.39490878  0.32045513  0.74775347     0.19600
C1518       C  0.42637241  0.30120776  0.73920033     0.24700
C1519       C  0.46116113  0.31611029  0.74432080    -0.23300
C1520       C  0.46365070  0.35081035  0.75816390     0.19600
F1521       F  0.49659616  0.36611272  0.76389964    -0.13300
F1522       F  0.43574655  0.40299797  0.78053688    -0.15600
F1523       F  0.42265162  0.26806810  0.72566432    -0.15600
F1524       F  0.36190864  0.30471350  0.74321995    -0.13300
C1525       C  0.52599081  0.20188255  0.84189630     0.24700
C1526       C  0.55207847  0.22778947  0.83261073    -0.23400
C1527       C  0.56373009  0.25433827  0.85345408     0.19600
C1528       C  0.54741378  0.25674192  0.88230932     0.24700
C1529       C  0.51962917  0.23225213  0.89087357    -0.23300
C1530       C  0.51010872  0.20390552  0.87096604     0.19600
F1531       F  0.48332193  0.18013908  0.87860599    -0.13300
F1532       F  0.51447490  0.17575666  0.82211923    -0.15600
F1533       F  0.55758095  0.28411884  0.90142204    -0.15600
F1534       F  0.58841358  0.27992726  0.84494101    -0.13300
C1535       C  0.45520784  0.24417509  0.60543482     0.24700
C1536       C  0.47358400  0.22542030  0.58196320    -0.23400
C1537       C  0.50480372  0.20447765  0.58935499     0.19600
C1538       C  0.51909502  0.20492426  0.61902638     0.24700
C1539       C  0.50245132  0.22626237  0.64168505    -0.23300
C1540       C  0.46976796  0.24485236  0.63501698     0.19600
F1541       F  0.45304427  0.26533603  0.65687019    -0.13300
F1542       F  0.42488882  0.26422315  0.59928532    -0.15600
F1543       F  0.55085212  0.18710835  0.62491758    -0.15600
F1544       F  0.52244667  0.18476276  0.56750823    -0.13300
C1545       C  0.69619936  0.30618551  0.66711752     0.24700
C1546       C  0.66864728  0.28110023  0.65992197    -0.23400
C1547       C  0.66310316  0.27136979  0.62908552     0.19600
C1548       C  0.68193014  0.28945890  0.60566714     0.24700
C1549       C  0.70595041  0.31802202  0.61284505    -0.23300
C1550       C  0.71450519  0.32469145  0.64374555     0.19600
F1551       F  0.73778181  0.35195534  0.65132149    -0.13300
F1552       F  0.70178026  0.31660440  0.69658613    -0.15600
F1553       F  0.67298929  0.28242411  0.57608594    -0.15600
F1554       F  0.63692398  0.24686062  0.62155249    -0.13300
C1555       C  0.85506367  0.59479253  0.74011236     0.24700
C1556       C  0.85384684  0.58568951  0.77141498    -0.23400
C1557       C  0.88069058  0.59960404  0.79102634     0.19600
C1558       C  0.90680953  0.62423851  0.77979622     0.24700
C1559       C  0.90549834  0.63617788  0.74910306    -0.23300
C1560       C  0.88028927  0.62016982  0.72914934     0.19600
F1561       F  0.87812096  0.63141814  0.69959108    -0.13300
F1562       F  0.82928367  0.58192369  0.72067506    -0.15600
F1563       F  0.93058698  0.63970640  0.79971124    -0.15600
F1564       F  0.87974366  0.59180831  0.82138673    -0.13300
C1565       C  0.68951403  0.39354072  0.78365426     0.24700
C1566       C  0.67549685  0.42844698  0.77709789    -0.23400
C1567       C  0.64206302  0.43135426  0.76137462     0.19600
C1568       C  0.62299085  0.40003459  0.75262636     0.24700
C1569       C  0.63664867  0.36517219  0.75982105    -0.23300
C1570       C  0.67019620  0.36229094  0.77530545     0.19600
F1571       F  0.68497956  0.32910097  0.78158282    -0.13300
F1572       F  0.72168649  0.38952202  0.79865279    -0.15600
F1573       F  0.59093788  0.40387199  0.73741850    -0.15600
F1574       F  0.62809886  0.46454722  0.75389462    -0.13300
C1575       C  0.59059066  0.59215223  0.77342819     0.24700
C1576       C  0.62543798  0.60542688  0.76615692    -0.23400
C1577       C  0.62848878  0.63945751  0.75142847     0.19600
C1578       C  0.59736145  0.65956870  0.74376580     0.24700
C1579       C  0.56246719  0.64589053  0.75038405    -0.23300
C1580       C  0.55944001  0.61207665  0.76549700     0.19600
F1581       F  0.52626336  0.59844896  0.77309573    -0.13300
F1582       F  0.58659303  0.55965241  0.78792213    -0.15600
F1583       F  0.60145886  0.69210314  0.72934072    -0.15600
F1584       F  0.66171440  0.65390126  0.74521090    -0.13300
C1585       C  0.78497066  0.47812707  0.65276351     0.24700
C1586       C  0.75570332  0.48748093  0.63367340    -0.23400
C1587       C  0.73105215  0.51489379  0.64314959     0.19600
C1588       C  0.73437964  0.53116612  0.67198787     0.24700
C1589       C  0.76199637  0.51980242  0.69202206    -0.23300
C1590       C  0.78791532  0.49393353  0.68184109     0.19600
F1591       F  0.81512453  0.48267222  0.70070991    -0.13300
F1592       F  0.80899880  0.45169907  0.64428254    -0.15600
F1593       F  0.70879606  0.55567350  0.68128270    -0.15600
F1594       F  0.70285921  0.52498809  0.62484531    -0.13300
C1595       C  0.73889748  0.43643006  0.89086861     0.24700
C1596       C  0.76161432  0.46574702  0.88255898    -0.23400
C1597       C  0.78761213  0.47837352  0.90348564     0.19600
C1598       C  0.78849818  0.46425160  0.93325027     0.24700
C1599       C  0.76387914  0.43682597  0.94224328    -0.23300
C1600       C  0.74026537  0.42183501  0.92041818     0.19600
F1601       F  0.71634617  0.39530111  0.92840838    -0.13300
F1602       F  0.71407164  0.42311582  0.87073531    -0.15600
F1603       F  0.81232373  0.47849708  0.95376370    -0.15600
F1604       F  0.80996014  0.50641407  0.89598528    -0.13300
C1605       C  0.63268167  0.84797111  0.98922032     0.24700
C1606       C  0.62075392  0.81982280  0.50847787    -0.23400
C1607       C  0.63037840  0.82079650  0.53967607     0.19600
C1608       C  0.65439325  0.84729663  0.55078193     0.24700
C1609       C  0.66857914  0.87397056  0.53109867    -0.23300
C1610       C  0.65608628  0.87517198  0.00055547     0.19600
F1611       F  0.66998211  0.90006317  0.98077342    -0.13300
F1612       F  0.62406430  0.84748057  0.95901727    -0.15600
F1613       F  0.66624991  0.84505405  0.58016785    -0.15600
F1614       F  0.61906587  0.79405275  0.55890776    -0.13300
C1615       C  0.44165795  0.62286174  0.97522013     0.24700
C1616       C  0.46237412  0.64326132  0.99605423    -0.23400
C1617       C  0.45238021  0.64408449  0.52702570     0.19600
C1618       C  0.42206763  0.62452072  0.53717876     0.24700
C1619       C  0.40057374  0.60480199  0.51625620    -0.23300
C1620       C  0.41054313  0.60427432  0.98514068     0.19600
F1621       F  0.39052960  0.58525838  0.96448194    -0.13300
F1622       F  0.45135850  0.62131759  0.94524618    -0.15600
F1623       F  0.41315838  0.62572822  0.56734134    -0.15600
F1624       F  0.47233480  0.66347958  0.54749232    -0.13300
C1625       C  0.52206386  0.75381450  0.59296972     0.24700
C1626       C  0.55199637  0.73134507  0.58503837    -0.23400
C1627       C  0.56919255  0.71063221  0.60788958     0.19600
C1628       C  0.55478616  0.71012909  0.63755035     0.24700
C1629       C  0.52353376  0.73087679  0.64482806    -0.23300
C1630       C  0.50807354  0.75367125  0.62268674     0.19600
F1631       F  0.47748129  0.77324408  0.62906630    -0.13300
F1632       F  0.50519505  0.77469451  0.57151822    -0.15600
F1633       F  0.57018940  0.68792720  0.65885289    -0.15600
F1634       F  0.59795810  0.68866145  0.60100118    -0.13300
C1635       C  0.47278440  0.71112137  0.88631248     0.24700
C1636       C  0.50256784  0.73319731  0.89446924    -0.23400
C1637       C  0.51486400  0.75982677  0.87400094     0.19600
C1638       C  0.49966803  0.76208470  0.84467160     0.24700
C1639       C  0.47171115  0.73795465  0.83564780    -0.23300
C1640       C  0.45732042  0.71360770  0.85718453     0.19600
F1641       F  0.43069784  0.68983028  0.84916456    -0.13300
F1642       F  0.45994937  0.68567430  0.90611449    -0.15600
F1643       F  0.51361867  0.78652382  0.82449967    -0.15600
F1644       F  0.54357424  0.78136723  0.88139433    -0.13300
C1645       C  0.71391922  0.62384745  0.89839964     0.24700
C1646       C  0.70839366  0.63291804  0.86738257    -0.23400
C1647       C  0.68768161  0.66423007  0.86037198     0.19600
C1648       C  0.66903436  0.68309289  0.88362941     0.24700
C1649       C  0.67154941  0.67154909  0.91429504    -0.23300
C1650       C  0.69585533  0.64314291  0.92164882     0.19600
F1651       F  0.69840785  0.63088920  0.95091228    -0.13300
F1652       F  0.73415218  0.59409898  0.90603903    -0.15600
F1653       F  0.64598495  0.71066166  0.87590787    -0.15600
F1654       F  0.68177435  0.67388616  0.83077604    -0.13300
C1655       C  0.68027083  0.56011515  0.54293799     0.24700
C1656       C  0.66879027  0.52615169  0.53174901    -0.23400
C1657       C  0.63796651  0.52440448  0.51271143     0.19600
C1658       C  0.61984315  0.55636112  0.50395147     0.24700
C1659       C  0.63193489  0.59057296  0.51447750    -0.23300
C1660       C  0.66195924  0.59198256  0.53455143     0.19600
F1661       F  0.67466307  0.62433314  0.04520813    -0.13300
F1662       F  0.70918535  0.56248306  0.06222460    -0.15600
F1663       F  0.59060042  0.55377429  0.48505119    -0.15600
F1664       F  0.62616950  0.49187868  0.50166132    -0.13300
loop_ 
_geom_bond_atom_site_label_1 
_geom_bond_atom_site_label_2 
_geom_bond_distance 
_geom_bond_site_symmetry_2 
_ccdc_geom_bond_type 
Fe1          O12   1.950       .  S
Fe1          O14   2.068       .  S
Fe1           O6   2.106       .  S
Fe1         O849   2.099       .  S
Fe1         O839   2.024       .  S
Fe2          O12   1.944       .  S
Fe2           O5   2.077       .  S
Fe2           O9   2.045       .  S
Fe2          O13   2.065       .  S
Fe2          O18   2.050       .  S
Fe3         O844   1.943   1_554  S
Fe3          O21   2.046       .  S
Fe3          O15   2.105       .  S
Fe3           O4   2.055   1_554  S
Fe3         O840   2.118   1_554  S
O4          C843   1.268       .  A
O5          C851   1.268       .  A
O6           C11   1.275       .  A
O7         Fe833   2.024   1_554  S
O7           C10   1.265       .  A
O8         Fe835   2.118       .  S
O8           C20   1.282       .  A
O9           C22   1.268       .  A
C10          O15   1.279       .  A
C10         C794   1.475       .  S
C11         O836   1.268       .  A
C11        C1606   1.481       .  S
O12        Fe835   1.943       .  S
O13          C16   1.269       .  A
O14          C16   1.270       .  A
C16         C804   1.470       .  S
O17        Fe833   2.099       .  S
O17         C854   1.276       .  A
O18          C20   1.270       .  A
C19          O21   1.264       .  A
C19         O837   1.268   1_554  A
C19         C827   1.479       .  S
C20         C817   1.481       .  S
C22         O849   1.276       .  A
C22         C784   1.467       .  S
Fe23         O34   1.954       .  S
Fe23         O39   2.105       .  S
Fe23         O29   2.030       .  S
Fe23         O36   2.073       .  S
Fe23         O28   2.101       .  S
Fe24         O34   1.940       .  S
Fe24         O27   2.073       .  S
Fe24         O31   2.045       .  S
Fe24         O35   2.070       .  S
Fe24         O40   2.046       .  S
Fe25         O34   1.941       .  S
Fe25         O43   2.048       .  S
Fe25         O30   2.121       .  S
Fe25         O37   2.111       .  S
Fe25         O26   2.050       .  S
O26          C33   1.265       .  A
O27          C41   1.265       .  A
O28          C33   1.273       .  A
O29          C32   1.267       .  A
O30          C42   1.285       .  A
O31          C44   1.269       .  A
C32          O37   1.282       .  A
C32         C757   1.476       .  S
C33         C724   1.478       .  S
O35          C38   1.268       .  A
O36          C38   1.271       .  A
C38         C764   1.474       .  S
O39          C44   1.279       .  A
O40          C42   1.273       .  A
C41          O43   1.262       .  A
C41         C744   1.479       .  S
C42         C814   1.486       .  S
C44         C734   1.482       .  S
Fe45         O56   1.950       .  S
Fe45         O61   2.070       .  S
Fe45         O51   2.109       .  S
Fe45         O58   2.111       .  S
Fe45         O50   2.026       .  S
Fe46         O56   1.940       .  S
Fe46         O49   2.047       .  S
Fe46         O53   2.070       .  S
Fe46         O57   2.045       .  S
Fe46         O62   2.079       .  S
Fe47         O56   1.941       .  S
Fe47         O65   2.110       .  S
Fe47         O52   2.051       .  S
Fe47         O59   2.052       .  S
Fe47         O48   2.107       .  S
O48          C55   1.280       .  A
O49          C63   1.272       .  A
O50          C55   1.267       .  A
O51          C54   1.275       .  A
O52          C64   1.264       .  A
O53          C66   1.268       .  A
C54          O59   1.265       .  A
C54         C677   1.482       .  S
C55         C694   1.471       .  S
O57          C60   1.269       .  A
O58          C60   1.280       .  A
C60         C687   1.486       .  S
O61          C66   1.270       .  A
O62          C64   1.268       .  A
C63          O65   1.282       .  A
C63         C714   1.477       .  S
C64         C737   1.481       .  S
C66         C707   1.469       .  S
Fe67         O78   1.949       .  S
Fe67         O83   2.070       .  S
Fe67         O73   2.086       .  S
Fe67         O80   2.092       .  S
Fe67        O904   2.039   1_554  S
Fe68         O78   1.937       .  S
Fe68         O71   2.042       .  S
Fe68         O75   2.072       .  S
Fe68         O79   2.042       .  S
Fe68         O84   2.067       .  S
Fe69         O78   1.944       .  S
Fe69         O87   2.114       .  S
Fe69         O74   2.056       .  S
Fe69         O81   2.055       .  S
Fe69        O902   2.103   1_554  S
O70        Fe901   2.103       .  S
O70          C77   1.279       .  A
O71          C85   1.270       .  A
O72        Fe899   2.039       .  S
O72          C77   1.269       .  A
O73          C76   1.271       .  A
O74          C86   1.265       .  A
O75          C88   1.269       .  A
C76          O81   1.267       .  A
C76         C654   1.470       .  S
C77         C767   1.475       .  S
O79          C82   1.267       .  A
O80          C82   1.276       .  A
C82         C824   1.471       .  S
O83          C88   1.271       .  A
O84          C86   1.267       .  A
C85          O87   1.281       .  A
C85         C717   1.478       .  S
C86         C664   1.481       .  S
C88         C754   1.476       .  S
Fe89        O100   1.950       .  S
Fe89        O102   2.069       .  S
Fe89         O94   2.105       .  S
Fe89        O937   2.101       .  S
Fe89        O927   2.032       .  S
Fe90        O100   1.936       .  S
Fe90         O93   2.071       .  S
Fe90         O97   2.039       .  S
Fe90        O101   2.065       .  S
Fe90        O106   2.044       .  S
Fe91        O932   1.941   1_554  S
Fe91        O109   2.051       .  S
Fe91        O103   2.109       .  S
Fe91         O92   2.050   1_554  S
Fe91        O928   2.119   1_554  S
O92         C931   1.266       .  A
O93         C939   1.267       .  A
O94          C99   1.274       .  A
O95        Fe921   2.032   1_554  S
O95          C98   1.268       .  A
O96        Fe923   2.119       .  S
O96         C108   1.282       .  A
O97         C110   1.268       .  A
C98         O103   1.281       .  A
C98         C704   1.480       .  S
C99         O924   1.266       .  A
C99        C1459   1.478       .  S
O100       Fe923   1.941       .  S
O101        C104   1.268       .  A
O102        C104   1.271       .  A
C104        C697   1.472       .  S
O105       Fe921   2.101       .  S
O105        C942   1.278       .  A
O106        C108   1.270       .  A
C107        O109   1.264       .  A
C107        O925   1.267   1_554  A
C107        C644   1.473       .  S
C108        C634   1.479       .  S
C110        O937   1.278       .  A
C110        C667   1.473       .  S
Fe111       O122   1.951       .  S
Fe111       O127   2.098       .  S
Fe111       O117   2.029       .  S
Fe111       O124   2.069       .  S
Fe111       O116   2.099       .  S
Fe112       O122   1.935       .  S
Fe112       O115   2.075       .  S
Fe112       O119   2.048       .  S
Fe112       O123   2.071       .  S
Fe112       O128   2.048       .  S
Fe113       O122   1.941       .  S
Fe113       O131   2.057       .  S
Fe113       O118   2.115       .  S
Fe113       O125   2.118       .  S
Fe113       O114   2.049       .  S
O114        C121   1.264       .  A
O115        C129   1.268       .  A
O116        C121   1.272       .  A
O117        C120   1.269       .  A
O118        C130   1.282       .  A
O119        C132   1.268       .  A
C120        O125   1.283       .  A
C120        C607   1.479       .  S
C121        C584   1.475       .  S
O123        C126   1.270       .  A
O124        C126   1.272       .  A
C126        C617   1.474       .  S
O127        C132   1.276       .  A
O128        C130   1.271       .  A
C129        O131   1.265       .  A
C129        C684   1.482       .  S
C130        C637   1.482       .  S
C132        C597   1.473       .  S
Fe133       O144   1.950       .  S
Fe133       O149   2.067       .  S
Fe133       O139   2.093       .  S
Fe133       O146   2.104       .  S
Fe133       O138   2.029       .  S
Fe134       O144   1.936       .  S
Fe134       O137   2.047       .  S
Fe134       O141   2.063       .  S
Fe134       O145   2.039       .  S
Fe134       O150   2.064       .  S
Fe135       O144   1.938       .  S
Fe135       O153   2.124       .  S
Fe135       O140   2.059       .  S
Fe135       O147   2.053       .  S
Fe135       O136   2.109       .  S
O136        C143   1.281       .  A
O137        C151   1.272       .  A
O138        C143   1.267       .  A
O139        C142   1.273       .  A
O140        C152   1.265       .  A
O141        C154   1.265       .  A
C142        O147   1.267       .  A
C142        C564   1.473       .  S
C143        C807   1.476       .  S
O145        C148   1.269       .  A
O146        C148   1.279       .  A
C148        C747   1.480       .  S
O149        C154   1.269       .  A
O150        C152   1.265       .  A
C151        O153   1.285       .  A
C151        C574   1.485       .  S
C152        C594   1.485       .  S
C154        C797   1.466       .  S
Fe155       O166   1.948       .  S
Fe155       O171   2.070       .  S
Fe155       O161   2.100       .  S
Fe155       O168   2.099       .  S
Fe155       O992   2.033   1_554  S
Fe156       O166   1.940       .  S
Fe156       O159   2.048       .  S
Fe156       O163   2.072       .  S
Fe156       O167   2.046       .  S
Fe156       O172   2.080       .  S
Fe157       O166   1.937       .  S
Fe157       O175   2.125       .  S
Fe157       O162   2.056       .  S
Fe157       O169   2.056       .  S
Fe157       O990   2.105   1_554  S
O158       Fe989   2.105       .  S
O158        C165   1.279       .  A
O159        C173   1.271       .  A
O160       Fe987   2.033       .  S
O160        C165   1.267       .  A
O161        C164   1.274       .  A
O162        C174   1.264       .  A
O163        C176   1.268       .  A
C164        O169   1.268       .  A
C164        C557   1.478       .  S
C165        C614   1.473       .  S
O167        C170   1.270       .  A
O168        C170   1.278       .  A
C170        C647   1.480       .  S
O171        C176   1.271       .  A
O172        C174   1.268       .  A
C173        O175   1.284       .  A
C173        C577   1.485       .  S
C174        C787   1.477       .  S
C176        C604   1.470       .  S
Fe177       O188   1.951       .  S
Fe177       O193   2.107   1_455  S
Fe177       O183   2.032       .  S
Fe177       O190   2.071       .  S
Fe177       O182   2.101       .  S
Fe178       O188   1.938       .  S
Fe178       O181   2.077       .  S
Fe178       O185   2.048       .  S
Fe178       O189   2.075       .  S
Fe178       O194   2.052       .  S
Fe179       O188   1.943       .  S
Fe179       O197   2.051       .  S
Fe179       O184   2.110       .  S
Fe179       O191   2.107       .  S
Fe179       O180   2.053       .  S
O180        C187   1.266       .  A
O181        C195   1.269       .  A
O182        C187   1.274       .  A
O183        C186   1.268       .  A
O184        C196   1.280       .  A
O185        C198   1.268   1_455  A
C186        O191   1.280       .  A
C186        C514   1.473       .  S
C187        C587   1.476       .  S
O189        C192   1.270       .  A
O190        C192   1.270       .  A
C192        C527   1.474       .  S
O193        C198   1.279       .  A
O194        C196   1.270       .  A
C195        O197   1.266       .  A
C195        C547   1.476       .  S
C196        C534   1.478       .  S
C198        C504   1.484       .  S
Fe199       O210   1.953       .  S
Fe199       O215   2.106   1_545  S
Fe199       O212   2.070   1_545  S
Fe199       O204   2.101       .  S
Fe199      O1037   2.030   1_554  S
Fe200       O210   1.935       .  S
Fe200       O203   2.067       .  S
Fe200       O207   2.042   1_545  S
Fe200       O211   2.071   1_545  S
Fe200       O216   2.046       .  S
Fe201       O210   1.940       .  S
Fe201       O219   2.056       .  S
Fe201       O206   2.113       .  S
Fe201       O202   2.049       .  S
Fe201      O1045   2.105   1_554  S
O202        C209   1.265       .  A
O203        C217   1.267       .  A
O204        C209   1.273       .  A
O205      Fe1031   2.030       .  S
O205        C208   1.268       .  A
O206        C218   1.281       .  A
O207        C220   1.267       .  A
C208        O213   1.280       .  A
C208        C487   1.468       .  S
C209        C624   1.477       .  S
O211        C214   1.270       .  A
O212        C214   1.272       .  A
O213      Fe1033   2.105       .  S
C214        C494   1.473       .  S
O215        C220   1.278       .  A
O216        C218   1.271       .  A
C217        O219   1.265       .  A
C217        C474   1.483       .  S
C218        C537   1.483       .  S
C220        C464   1.481       .  S
Fe221       O232   1.946       .  S
Fe221       O237   2.064       .  S
Fe221       O227   2.105       .  S
Fe221       O234   2.107   1_455  S
Fe221      O1058   2.025       .  S
Fe222       O232   1.935       .  S
Fe222       O225   2.041       .  S
Fe222       O229   2.075       .  S
Fe222       O233   2.035       .  S
Fe222       O238   2.081       .  S
Fe223      O1064   1.936   1_554  S
Fe223       O228   2.052       .  S
Fe223       O224   2.117       .  S
Fe223      O1073   2.119   1_554  S
Fe223      O1067   2.049   1_554  S
O224        C231   1.282       .  A
O225        C239   1.270       .  A
O226      Fe1053   2.025   1_554  S
O226        C231   1.267       .  A
O227        C230   1.275       .  A
O228        C240   1.265       .  A
O229        C242   1.270       .  A
C230        O235   1.265       .  A
C230       C1386   1.477       .  S
C231        C447   1.478       .  S
O232      Fe1055   1.936       .  S
O233        C236   1.266   1_455  A
O234        C236   1.280       .  A
O235      Fe1055   2.049       .  S
C236       C1256   1.481       .  S
O237        C242   1.269       .  A
O238       C1072   1.269       .  A
C239        O241   1.282       .  A
C239        C437   1.485       .  S
C240       O1070   1.269   1_554  A
C240        C467   1.482       .  S
O241      Fe1055   2.119       .  S
C242        C454   1.470   1_455  S
Fe243       O254   1.956       .  S
Fe243       O259   2.068       .  S
Fe243       O249   2.093       .  S
Fe243       O256   2.091   1_565  S
Fe243       O248   2.033       .  S
Fe244       O254   1.937       .  S
Fe244       O247   2.053       .  S
Fe244       O251   2.070       .  S
Fe244       O255   2.051       .  S
Fe244       O260   2.079       .  S
Fe245       O254   1.942       .  S
Fe245       O263   2.107       .  S
Fe245       O250   2.046       .  S
Fe245       O257   2.049       .  S
Fe245       O246   2.105       .  S
O246        C253   1.280       .  A
O247        C261   1.271       .  A
O248        C253   1.268       .  A
O249        C252   1.271       .  A
O250        C262   1.264       .  A
O251        C264   1.271       .  A
C252        O257   1.264       .  A
C252        C567   1.471       .  S
C253        C497   1.472       .  S
O255        C258   1.269   1_565  A
O256        C258   1.275       .  A
C258        C544   1.483       .  S
O259        C264   1.271       .  A
O260        C262   1.270       .  A
C261        O263   1.279       .  A
C261        C434   1.477       .  S
C262        C414   1.474       .  S
C264        C484   1.475       .  S
Fe265       O276   1.951       .  S
Fe265       O281   2.110   1_655  S
Fe265       O271   2.031       .  S
Fe265       O278   2.067       .  S
Fe265       O270   2.107       .  S
Fe266       O276   1.936       .  S
Fe266       O269   2.080       .  S
Fe266       O273   2.033   1_655  S
Fe266       O277   2.074       .  S
Fe266       O282   2.047       .  S
Fe267       O276   1.942       .  S
Fe267       O285   2.051       .  S
Fe267       O272   2.116       .  S
Fe267       O279   2.106       .  S
Fe267       O268   2.052       .  S
O268        C275   1.267       .  A
O269        C283   1.271       .  A
O270        C275   1.275       .  A
O271        C274   1.267       .  A
O272        C284   1.280       .  A
O273        C286   1.266       .  A
C274        O279   1.279       .  A
C274        C457   1.473       .  S
C275        C727   1.479       .  S
O277        C280   1.270   1_655  A
O278        C280   1.270   1_655  A
C280        C444   1.470       .  S
O281        C286   1.280       .  A
O282        C284   1.269       .  A
C283        O285   1.266       .  A
C283        C404   1.477       .  S
C284        C394   1.481       .  S
C286        C417   1.486       .  S
Fe287       O298   1.954       .  S
Fe287       O303   2.111   1_565  S
Fe287       O300   2.077       .  S
Fe287       O292   2.112       .  S
Fe287      O1125   2.035   1_554  S
Fe288       O298   1.939       .  S
Fe288       O291   2.074       .  S
Fe288       O295   2.046       .  S
Fe288       O299   2.071       .  S
Fe288       O304   2.056       .  S
Fe289       O298   1.942       .  S
Fe289       O307   2.046       .  S
Fe289       O294   2.111       .  S
Fe289       O290   2.046       .  S
Fe289      O1133   2.109   1_554  S
O290        C297   1.264       .  A
O291        C305   1.268       .  A
O292        C297   1.275       .  A
O293      Fe1119   2.035       .  S
O293        C296   1.269       .  A
O294        C306   1.281       .  A
O295        C308   1.268   1_565  A
C296        O301   1.281       .  A
C296        C374   1.476       .  S
C297        C777   1.482       .  S
O299        C302   1.269       .  A
O300        C302   1.274       .  A
O301      Fe1121   2.109       .  S
C302        C384   1.475       .  S
O303        C308   1.280       .  A
O304        C306   1.272       .  A
C305        O307   1.263       .  A
C305        C427   1.476       .  S
C306        C397   1.485       .  S
C308        C364   1.486       .  S
Fe309       O320   1.955       .  S
Fe309       O325   2.070       .  S
Fe309       O315   2.096       .  S
Fe309       O322   2.100   1_655  S
Fe309      O1146   2.037       .  S
Fe310       O320   1.934       .  S
Fe310       O313   2.050       .  S
Fe310       O317   2.072       .  S
Fe310       O321   2.044   1_655  S
Fe310       O326   2.079       .  S
Fe311      O1152   1.942   1_554  S
Fe311       O316   2.056       .  S
Fe311       O312   2.110       .  S
Fe311      O1161   2.109   1_554  S
Fe311      O1155   2.047   1_554  S
O312        C319   1.281       .  A
O313        C327   1.270       .  A
O314      Fe1141   2.037   1_554  S
O314        C319   1.269       .  A
O315        C318   1.272       .  A
O316        C328   1.267       .  A
O317        C330   1.269   1_655  A
C318        O323   1.265       .  A
C318       C1489   1.469       .  S
C319        C524   1.477       .  S
O320      Fe1143   1.942       .  S
O321        C324   1.269       .  A
O322        C324   1.277       .  A
O323      Fe1143   2.047       .  S
C324       C1309   1.474       .  S
O325        C330   1.270   1_655  A
O326       C1160   1.271       .  A
C327        O329   1.279       .  A
C327        C357   1.479       .  S
C328       O1158   1.271   1_554  A
C328        C367   1.482       .  S
O329      Fe1143   2.109       .  S
C330        C517   1.473       .  S
Fe331       O342   1.950       .  S
Fe331       O347   2.067   1_545  S
Fe331       O337   2.108       .  S
Fe331       O344   2.099   1_545  S
Fe331       O336   2.033       .  S
Fe332       O342   1.944       .  S
Fe332       O335   2.055       .  S
Fe332       O339   2.083   1_545  S
Fe332       O343   2.050   1_545  S
Fe332       O348   2.089       .  S
Fe333       O342   1.943       .  S
Fe333       O351   2.106       .  S
Fe333       O338   2.053       .  S
Fe333       O345   2.056       .  S
Fe333       O334   2.112       .  S
O334        C341   1.281       .  A
O335        C349   1.271       .  A
O336        C341   1.268       .  A
O337        C340   1.274       .  A
O338        C350   1.266       .  A
O339        C352   1.272       .  A
C340        O345   1.266       .  A
C340        C674   1.482       .  S
C341        C387   1.478       .  S
O343        C346   1.268       .  A
O344        C346   1.277       .  A
C346        C407   1.484       .  S
O347        C352   1.272       .  A
O348        C350   1.272       .  A
C349        O351   1.280       .  A
C349        C354   1.483       .  S
C350        C507   1.487       .  S
C352        C377   1.476       .  S
C353        C354   1.407       .  A
C353        C358   1.401       .  A
C353        F360   1.358       .  S
C354        C355   1.409       .  A
C355        C356   1.402       .  A
C355        F362   1.358       .  S
C356        C357   1.407       .  A
C356        F361   1.359       .  S
C357        C358   1.406       .  A
C358        F359   1.358       .  S
C363        C364   1.410       .  A
C363        C368   1.398       .  A
C363        F370   1.358       .  S
C364        C365   1.408       .  A
C365        C366   1.402       .  A
C365        F372   1.358       .  S
C366        C367   1.410       .  A
C366        F371   1.358       .  S
C367        C368   1.405       .  A
C368        F369   1.358   1_554  S
C373        C374   1.403       .  A
C373        C378   1.400       .  A
C373        F380   1.358       .  S
C374        C375   1.410       .  A
C375        C376   1.400       .  A
C375        F382   1.358       .  S
C376        C377   1.401       .  A
C376        F381   1.358   1_565  S
C377        C378   1.410       .  A
C378        F379   1.358       .  S
C383        C384   1.400       .  A
C383        C388   1.398       .  A
C383        F390   1.358       .  S
C384        C385   1.411   1_565  A
C385        C386   1.402       .  A
C385        F392   1.358       .  S
C386        C387   1.403       .  A
C386        F391   1.358       .  S
C387        C388   1.411   1_545  A
C388        F389   1.358       .  S
C393        C394   1.407       .  A
C393        C398   1.403       .  A
C393        F400   1.358       .  S
C394        C395   1.407       .  A
C395        C396   1.402       .  A
C395        F402   1.358       .  S
C396        C397   1.407       .  A
C396        F401   1.358       .  S
C397        C398   1.409       .  A
C398        F399   1.358       .  S
C403        C404   1.406       .  A
C403        C408   1.397       .  A
C403        F410   1.358       .  S
C404        C405   1.406       .  A
C405        C406   1.400       .  A
C405        F412   1.358       .  S
C406        C407   1.411       .  A
C406        F411   1.358       .  S
C407        C408   1.408       .  A
C408        F409   1.358       .  S
C413        C414   1.401       .  A
C413        C418   1.398       .  A
C413        F420   1.358       .  S
C414        C415   1.407       .  A
C415        C416   1.398       .  A
C415        F422   1.358       .  S
C416        C417   1.408       .  A
C416        F421   1.358       .  S
C417        C418   1.414       .  A
C418        F419   1.358       .  S
C423        C424   1.406       .  A
C423        C428   1.398       .  A
C423        F430   1.358       .  S
C424       C1068   1.481       .  S
C424       C1257   1.412   1_556  A
C425       C1256   1.412       .  A
C425       C1258   1.397       .  A
C425        F432   1.358       .  S
C426        C427   1.404       .  A
C426       C1257   1.397       .  A
C426       F1263   1.358       .  S
C427        C428   1.409   1_554  A
C428        F429   1.358       .  S
F431       C1258   1.358       .  S
C433        C434   1.406       .  A
C433        C438   1.404       .  A
C433        F440   1.358       .  S
C434        C435   1.404       .  A
C435        C436   1.399       .  A
C435        F442   1.359       .  S
C436        C437   1.410       .  A
C436        F441   1.359       .  S
C437        C438   1.408       .  A
C438        F439   1.358       .  S
C443        C444   1.408       .  A
C443        C448   1.400       .  A
C443        F450   1.358       .  S
C444        C445   1.399       .  A
C445        C446   1.398       .  A
C445        F452   1.358   1_455  S
C446        C447   1.413       .  A
C446        F451   1.358       .  S
C447        C448   1.403       .  A
C448        F449   1.357       .  S
C453        C454   1.401   1_455  A
C453        C458   1.399   1_455  A
C453        F460   1.358       .  S
C454        C455   1.408       .  A
C455        C456   1.397       .  A
C455        F462   1.358       .  S
C456        C457   1.402       .  A
C456        F461   1.358       .  S
C457        C458   1.410       .  A
C458        F459   1.358   1_655  S
C463        C464   1.410       .  A
C463        C468   1.399       .  A
C463        F470   1.358       .  S
C464        C465   1.406       .  A
C465        C466   1.398       .  A
C465        F472   1.358       .  S
C466        C467   1.409       .  A
C466        F471   1.358       .  S
C467        C468   1.407       .  A
C468        F469   1.358   1_554  S
C473        C474   1.410       .  A
C473        C478   1.396       .  A
C473        F480   1.358       .  S
C474       C1307   1.410   1_554  A
C475        C476   1.399       .  A
C475       C1306   1.410       .  A
C475        F482   1.358       .  S
C476       C1309   1.406       .  A
C476        F481   1.358       .  S
C477       C1156   1.474       .  S
C477        C478   1.404   1_556  A
C477       C1308   1.406       .  A
C478        F479   1.358       .  S
C483        C484   1.404       .  A
C483        C488   1.401   1_565  A
C483        F490   1.358       .  S
C484        C485   1.410   1_565  A
C485        C486   1.394       .  A
C485        F492   1.358       .  S
C486        C487   1.399       .  A
C486        F491   1.358       .  S
C487        C488   1.409       .  A
C488        F489   1.358   1_545  S
C493        C494   1.410       .  A
C493        C498   1.398       .  A
C493        F500   1.358       .  S
C494        C495   1.402       .  A
C495        C496   1.399       .  A
C495        F502   1.358   1_565  S
C496        C497   1.409       .  A
C496        F501   1.358       .  S
C497        C498   1.402       .  A
C498        F499   1.358       .  S
C503        C504   1.410       .  A
C503        C508   1.402       .  A
C503        F510   1.358   1_655  S
C504        C505   1.405       .  A
C505        C506   1.399       .  A
C505        F512   1.358       .  S
C506        C507   1.411       .  A
C506        F511   1.358       .  S
C507        C508   1.408       .  A
C508        F509   1.358       .  S
C513        C514   1.410       .  A
C513        C518   1.400       .  A
C513        F520   1.358       .  S
C514        C515   1.401       .  A
C515        C516   1.398       .  A
C515        F522   1.358       .  S
C516        C517   1.410       .  A
C516        F521   1.358       .  S
C517        C518   1.401       .  A
C518        F519   1.358   1_455  S
C523        C524   1.402       .  A
C523        C528   1.399       .  A
C523        F530   1.358       .  S
C524        C525   1.411   1_655  A
C525        C526   1.401       .  A
C525        F532   1.358       .  S
C526        C527   1.402       .  A
C526        F531   1.358       .  S
C527        C528   1.409   1_455  A
C528        F529   1.358       .  S
C533        C534   1.407       .  A
C533        C538   1.404       .  A
C533        F540   1.358       .  S
C534        C535   1.405       .  A
C535        C536   1.399       .  A
C535        F542   1.358       .  S
C536        C537   1.409       .  A
C536        F541   1.358       .  S
C537        C538   1.408       .  A
C538        F539   1.358       .  S
C543        C544   1.409       .  A
C543        C548   1.397       .  A
C543        F550   1.358       .  S
C544        C545   1.410       .  A
C545        C546   1.399       .  A
C545        F552   1.358       .  S
C546        C547   1.405       .  A
C546        F551   1.358       .  S
C547        C548   1.406       .  A
C548        F549   1.358       .  S
C553        C554   1.410       .  A
C553        C558   1.404       .  A
C553        F560   1.358       .  S
C554       C1062   1.477   1_554  S
C554       C1387   1.402   1_554  A
C555        C556   1.402       .  A
C555       C1386   1.402       .  A
C555        F562   1.358       .  S
C556       C1389   1.409       .  A
C556        F561   1.358       .  S
C557        C558   1.402       .  A
C557       C1388   1.409   1_554  A
C558        F559   1.357       .  S
C563        C564   1.402       .  A
C563        C568   1.402       .  A
C563        F570   1.357       .  S
C564        C565   1.409       .  A
C565        C566   1.400       .  A
C565        F572   1.358       .  S
C566        C567   1.400       .  A
C566        F571   1.358       .  S
C567        C568   1.409       .  A
C568        F569   1.358       .  S
C573        C574   1.409       .  A
C573        C578   1.402       .  A
C573        F580   1.358       .  S
C574        C575   1.407       .  A
C575        C576   1.404       .  A
C575        F582   1.358       .  S
C576        C577   1.410       .  A
C576        F581   1.358       .  S
C577        C578   1.406       .  A
C578        F579   1.358       .  S
C583        C584   1.402       .  A
C583        C588   1.402       .  A
C583        F590   1.358       .  S
C584        C585   1.409       .  A
C585        C586   1.403       .  A
C585        F592   1.358       .  S
C586        C587   1.402       .  A
C586        F591   1.357       .  S
C587        C588   1.409       .  A
C588        F589   1.358       .  S
C593        C594   1.410       .  A
C593        C598   1.398       .  A
C593        F600   1.358       .  S
C594        C595   1.412       .  A
C595        C596   1.397       .  A
C595        F602   1.358       .  S
C596        C597   1.403       .  A
C596        F601   1.358       .  S
C597        C598   1.404       .  A
C598        F599   1.357       .  S
C603        C604   1.398       .  A
C603        C608   1.398       .  A
C603        F610   1.358       .  S
C604        C605   1.409       .  A
C605        C606   1.401       .  A
C605        F612   1.358       .  S
C606        C607   1.403       .  A
C606        F611   1.358       .  S
C607        C608   1.413       .  A
C608        F609   1.358       .  S
C613        C614   1.400       .  A
C613        C618   1.397       .  A
C613        F620   1.358       .  S
C614        C615   1.410       .  A
C615        C616   1.400       .  A
C615        F622   1.358       .  S
C616        C617   1.402       .  A
C616        F621   1.358       .  S
C617        C618   1.410       .  A
C618        F619   1.358       .  S
C623        C624   1.401       .  A
C623        C628   1.399       .  A
C623        F630   1.358       .  S
C624       C1457   1.411   1_554  A
C625        C626   1.406       .  A
C625       C1456   1.411       .  A
C625        F632   1.358       .  S
C626       C1459   1.402       .  A
C626        F631   1.357       .  S
C627        C931   1.478   1_554  S
C627        C628   1.409       .  A
C627       C1458   1.402   1_554  A
C628        F629   1.357       .  S
C633        C634   1.406       .  A
C633        C638   1.402       .  A
C633        F640   1.358       .  S
C634        C635   1.408       .  A
C635        C636   1.401       .  A
C635        F642   1.358       .  S
C636        C637   1.406       .  A
C636        F641   1.358       .  S
C637        C638   1.410       .  A
C638        F639   1.358       .  S
C643        C644   1.405       .  A
C643        C648   1.398       .  A
C643       F1482   1.358   1_554  S
C644        C645   1.405       .  A
C645        C646   1.396       .  A
C645        F652   1.358       .  S
C646        C647   1.408       .  A
C646        F651   1.358       .  S
C647        C648   1.410       .  A
C648        F649   1.358       .  S
F650       C1475   1.358       .  S
C653        C658   1.400       .  A
C653       C1486   1.408       .  A
C653        F660   1.358       .  S
C654        C655   1.400       .  A
C654       C1485   1.408   1_554  A
C655        C656   1.400       .  A
C655        F662   1.358       .  S
C656        C657   1.409       .  A
C656        F661   1.357       .  S
C657       C1150   1.469   1_554  S
C657       C1490   1.401   1_554  A
C658       C1489   1.401       .  A
C658        F659   1.358       .  S
C663        C664   1.409   1_556  A
C663        C668   1.398       .  A
C663        F670   1.358       .  S
C664        C665   1.409       .  A
C665       C1498   1.395       .  A
C665        F672   1.358       .  S
C666        C667   1.405       .  A
C666       C1497   1.395       .  A
C666        F671   1.358       .  S
C667       C1500   1.405       .  A
C668       C1499   1.405       .  A
C668        F669   1.358       .  S
C673        C674   1.410       .  A
C673        C678   1.406       .  A
C673        F680   1.358       .  S
C674        C675   1.403       .  A
C675        C676   1.404       .  A
C675        F682   1.358       .  S
C676        C677   1.410       .  A
C676        F681   1.358       .  S
C677        C678   1.404       .  A
C678        F679   1.357       .  S
C683        C684   1.406       .  A
C683        C688   1.399       .  A
C683        F690   1.358       .  S
C684        C685   1.408       .  A
C685        C686   1.400       .  A
C685        F692   1.358       .  S
C686        C687   1.408       .  A
C686        F691   1.358       .  S
C687        C688   1.411       .  A
C688        F689   1.358       .  S
C693        C694   1.410       .  A
C693        C698   1.398       .  A
C693        F700   1.358       .  S
C694        C695   1.400       .  A
C695        C696   1.397       .  A
C695        F702   1.358       .  S
C696        C697   1.411       .  A
C696        F701   1.358       .  S
C697        C698   1.400       .  A
C698        F699   1.357       .  S
C703        C704   1.404       .  A
C703        C708   1.399       .  A
C703        F710   1.358       .  S
C704        C705   1.414       .  A
C705        C706   1.399       .  A
C705        F712   1.358       .  S
C706        C707   1.399       .  A
C706        F711   1.358       .  S
C707        C708   1.407       .  A
C708        F709   1.358       .  S
C713        C714   1.405       .  A
C713        C718   1.399       .  A
C713        F720   1.358       .  S
C714        C715   1.408       .  A
C715        C716   1.402       .  A
C715        F722   1.358       .  S
C716        C717   1.407       .  A
C716        F721   1.358       .  S
C717        C718   1.407       .  A
C718        F719   1.358       .  S
C723        C724   1.408       .  A
C723        C728   1.399       .  A
C723        F730   1.357       .  S
C724        C725   1.403       .  A
C725        C726   1.407       .  A
C725        F732   1.357       .  S
C726        C727   1.411       .  A
C726        F731   1.358       .  S
C727        C728   1.402       .  A
C728        F729   1.358       .  S
C733        C734   1.407       .  A
C733        C738   1.398       .  A
C733        F740   1.358       .  S
C734        C735   1.410       .  A
C735        C736   1.400       .  A
C735        F742   1.358       .  S
C736        C737   1.406       .  A
C736        F741   1.358       .  S
C737        C738   1.409       .  A
C738        F739   1.358       .  S
C743        C744   1.406       .  A
C743        C748   1.398       .  A
C743        F750   1.358       .  S
C744        C745   1.409       .  A
C745        C746   1.398       .  A
C745        F752   1.358       .  S
C746        C747   1.407       .  A
C746        F751   1.358       .  S
C747        C748   1.409       .  A
C748        F749   1.358       .  S
C753        C754   1.402       .  A
C753        C758   1.400       .  A
C753        F760   1.358       .  S
C754        C755   1.410       .  A
C755        C756   1.399       .  A
C755        F762   1.358       .  S
C756        C757   1.402       .  A
C756        F761   1.358       .  S
C757        C758   1.411       .  A
C758        F759   1.358       .  S
C763        C764   1.410       .  A
C763        C768   1.398       .  A
C763        F770   1.359       .  S
C764        C765   1.401       .  A
C765        C766   1.400       .  A
C765        F772   1.357       .  S
C766        C767   1.410       .  A
C766        F771   1.358       .  S
C767        C768   1.402       .  A
C768        F769   1.358       .  S
C773        C778   1.408       .  A
C773       C1606   1.403       .  A
C773        F780   1.357       .  S
C774        C843   1.481   1_554  S
C774        C775   1.408       .  A
C774       C1605   1.403   1_554  A
C775        C776   1.401       .  A
C775        F782   1.357       .  S
C776        C777   1.404       .  A
C776        F781   1.358       .  S
C777       C1610   1.412       .  A
C778       C1609   1.412       .  A
C778        F779   1.358       .  S
C783        C784   1.403       .  A
C783        C788   1.400       .  A
C783        F790   1.357       .  S
C784       C1617   1.401       .  A
C785        C786   1.398       .  A
C785       C1616   1.401   1_554  A
C785        F792   1.358       .  S
C786        C787   1.409       .  A
C786        F791   1.358       .  S
C787       C1620   1.407   1_554  A
C788       C1619   1.407       .  A
C788        F789   1.358       .  S
C793        C794   1.412       .  A
C793        C798   1.395       .  A
C793        F800   1.358       .  S
C794        C795   1.403       .  A
C795        C796   1.399       .  A
C795        F802   1.358       .  S
C796        C797   1.409       .  A
C796        F801   1.359       .  S
C797        C798   1.398       .  A
C798        F799   1.358       .  S
C803        C804   1.408       .  A
C803        C808   1.396       .  A
C803        F810   1.358       .  S
C804        C805   1.400       .  A
C805        C806   1.400       .  A
C805        F812   1.358       .  S
C806        C807   1.413       .  A
C806        F811   1.358       .  S
C807        C808   1.401       .  A
C808        F809   1.358       .  S
C813        C814   1.410       .  A
C813        C818   1.401       .  A
C813        F820   1.358       .  S
C814        C815   1.408       .  A
C815        C816   1.404       .  A
C815        F822   1.358       .  S
C816        C817   1.408       .  A
C816        F821   1.358       .  S
C817        C818   1.405       .  A
C818        F819   1.358       .  S
C823        C824   1.403       .  A
C823        C828   1.394       .  A
C823       F1662   1.358       .  S
C824        C825   1.406       .  A
C825        C826   1.398       .  A
C825        F832   1.358       .  S
C826        C827   1.409       .  A
C826        F831   1.358   1_554  S
C827        C828   1.410       .  A
C828       F1661   1.358       .  S
F829       C1660   1.358       .  S
F830       C1655   1.358       .  S
Fe833       O844   1.950       .  S
Fe833       O846   2.068       .  S
Fe833       O838   2.106       .  S
Fe834       O844   1.944       .  S
Fe834       O837   2.077       .  S
Fe834       O841   2.045       .  S
Fe834       O845   2.065       .  S
Fe834       O850   2.050       .  S
Fe835       O853   2.046       .  S
Fe835       O847   2.105       .  S
Fe835       O836   2.055       .  S
O838        C843   1.275       .  A
O839        C842   1.265       .  A
O840        C852   1.282       .  A
O841        C854   1.268       .  A
C842        O847   1.279       .  A
C842       C1626   1.475       .  S
O845        C848   1.269       .  A
O846        C848   1.270       .  A
C848       C1636   1.470       .  S
O850        C852   1.270       .  A
C851        O853   1.264       .  A
C851       C1659   1.479       .  S
C852       C1649   1.481       .  S
C854       C1616   1.467       .  S
Fe855       O866   1.954       .  S
Fe855       O871   2.105       .  S
Fe855       O861   2.030       .  S
Fe855       O868   2.073       .  S
Fe855       O860   2.101       .  S
Fe856       O866   1.940       .  S
Fe856       O859   2.073       .  S
Fe856       O863   2.045       .  S
Fe856       O867   2.070       .  S
Fe856       O872   2.046       .  S
Fe857       O866   1.941       .  S
Fe857       O875   2.048       .  S
Fe857       O862   2.121       .  S
Fe857       O869   2.111       .  S
Fe857       O858   2.050       .  S
O858        C865   1.265       .  A
O859        C873   1.265       .  A
O860        C865   1.273       .  A
O861        C864   1.267       .  A
O862        C874   1.285       .  A
O863        C876   1.269       .  A
C864        O869   1.282       .  A
C864       C1589   1.476       .  S
C865       C1556   1.478       .  S
O867        C870   1.268       .  A
O868        C870   1.271       .  A
C870       C1596   1.474       .  S
O871        C876   1.279       .  A
O872        C874   1.273       .  A
C873        O875   1.262       .  A
C873       C1576   1.479       .  S
C874       C1646   1.486       .  S
C876       C1566   1.482       .  S
Fe877       O888   1.950       .  S
Fe877       O893   2.070       .  S
Fe877       O883   2.109       .  S
Fe877       O890   2.111       .  S
Fe877       O882   2.026       .  S
Fe878       O888   1.940       .  S
Fe878       O881   2.047       .  S
Fe878       O885   2.070       .  S
Fe878       O889   2.045       .  S
Fe878       O894   2.079       .  S
Fe879       O888   1.941       .  S
Fe879       O897   2.110       .  S
Fe879       O884   2.051       .  S
Fe879       O891   2.052       .  S
Fe879       O880   2.107       .  S
O880        C887   1.280       .  A
O881        C895   1.272       .  A
O882        C887   1.267       .  A
O883        C886   1.275       .  A
O884        C896   1.264       .  A
O885        C898   1.268       .  A
C886        O891   1.265       .  A
C886       C1509   1.482       .  S
C887       C1526   1.471       .  S
O889        C892   1.269       .  A
O890        C892   1.280       .  A
C892       C1519   1.486       .  S
O893        C898   1.270       .  A
O894        C896   1.268       .  A
C895        O897   1.282       .  A
C895       C1546   1.477       .  S
C896       C1569   1.481       .  S
C898       C1539   1.469       .  S
Fe899       O910   1.949       .  S
Fe899       O915   2.070       .  S
Fe899       O905   2.086       .  S
Fe899       O912   2.092       .  S
Fe900       O910   1.937       .  S
Fe900       O903   2.042       .  S
Fe900       O907   2.072       .  S
Fe900       O911   2.042       .  S
Fe900       O916   2.067       .  S
Fe901       O910   1.944       .  S
Fe901       O919   2.114       .  S
Fe901       O906   2.056       .  S
Fe901       O913   2.055       .  S
O902        C909   1.279       .  A
O903        C917   1.270       .  A
O904        C909   1.269       .  A
O905        C908   1.271       .  A
O906        C918   1.265       .  A
O907        C920   1.269       .  A
C908        O913   1.267       .  A
C908       C1486   1.470       .  S
C909       C1599   1.475       .  S
O911        C914   1.267       .  A
O912        C914   1.276       .  A
C914       C1656   1.471       .  S
O915        C920   1.271       .  A
O916        C918   1.267       .  A
C917        O919   1.281       .  A
C917       C1549   1.478       .  S
C918       C1496   1.481       .  S
C920       C1586   1.476       .  S
Fe921       O932   1.950       .  S
Fe921       O934   2.069       .  S
Fe921       O926   2.105       .  S
Fe922       O932   1.936       .  S
Fe922       O925   2.071       .  S
Fe922       O929   2.039       .  S
Fe922       O933   2.065       .  S
Fe922       O938   2.044       .  S
Fe923       O941   2.051       .  S
Fe923       O935   2.109       .  S
Fe923       O924   2.050       .  S
O926        C931   1.274       .  A
O927        C930   1.268       .  A
O928        C940   1.282       .  A
O929        C942   1.268       .  A
C930        O935   1.281       .  A
C930       C1536   1.480       .  S
O933        C936   1.268       .  A
O934        C936   1.271       .  A
C936       C1529   1.472       .  S
O938        C940   1.270       .  A
C939        O941   1.264       .  A
C939       C1476   1.473       .  S
C940       C1466   1.479       .  S
C942       C1499   1.473       .  S
Fe943       O954   1.951       .  S
Fe943       O959   2.098       .  S
Fe943       O949   2.029       .  S
Fe943       O956   2.069       .  S
Fe943       O948   2.099       .  S
Fe944       O954   1.935       .  S
Fe944       O947   2.075       .  S
Fe944       O951   2.048       .  S
Fe944       O955   2.071       .  S
Fe944       O960   2.048       .  S
Fe945       O954   1.941       .  S
Fe945       O963   2.057       .  S
Fe945       O950   2.115       .  S
Fe945       O957   2.118       .  S
Fe945       O946   2.049       .  S
O946        C953   1.264       .  A
O947        C961   1.268       .  A
O948        C953   1.272       .  A
O949        C952   1.269       .  A
O950        C962   1.282       .  A
O951        C964   1.268       .  A
C952        O957   1.283       .  A
C952       C1439   1.479       .  S
C953       C1416   1.475       .  S
O955        C958   1.270       .  A
O956        C958   1.272       .  A
C958       C1449   1.474       .  S
O959        C964   1.276       .  A
O960        C962   1.271       .  A
C961        O963   1.265       .  A
C961       C1516   1.482       .  S
C962       C1469   1.482       .  S
C964       C1429   1.473       .  S
Fe965       O976   1.950       .  S
Fe965       O981   2.067       .  S
Fe965       O971   2.093       .  S
Fe965       O978   2.104       .  S
Fe965       O970   2.029       .  S
Fe966       O976   1.936       .  S
Fe966       O969   2.047       .  S
Fe966       O973   2.063       .  S
Fe966       O977   2.039       .  S
Fe966       O982   2.064       .  S
Fe967       O976   1.938       .  S
Fe967       O985   2.124       .  S
Fe967       O972   2.059       .  S
Fe967       O979   2.053       .  S
Fe967       O968   2.109       .  S
O968        C975   1.281       .  A
O969        C983   1.272       .  A
O970        C975   1.267       .  A
O971        C974   1.273       .  A
O972        C984   1.265       .  A
O973        C986   1.265       .  A
C974        O979   1.267       .  A
C974       C1396   1.473       .  S
C975       C1639   1.476       .  S
O977        C980   1.269       .  A
O978        C980   1.279       .  A
C980       C1579   1.480       .  S
O981        C986   1.269       .  A
O982        C984   1.265       .  A
C983        O985   1.285       .  A
C983       C1406   1.485       .  S
C984       C1426   1.485       .  S
C986       C1629   1.466       .  S
Fe987       O998   1.948       .  S
Fe987      O1003   2.070       .  S
Fe987       O993   2.100       .  S
Fe987      O1000   2.099       .  S
Fe988       O998   1.940       .  S
Fe988       O991   2.048       .  S
Fe988       O995   2.072       .  S
Fe988       O999   2.046       .  S
Fe988      O1004   2.080       .  S
Fe989       O998   1.937       .  S
Fe989      O1007   2.125       .  S
Fe989       O994   2.056       .  S
Fe989      O1001   2.056       .  S
O990        C997   1.279       .  A
O991       C1005   1.271       .  A
O992        C997   1.267       .  A
O993        C996   1.274       .  A
O994       C1006   1.264       .  A
O995       C1008   1.268       .  A
C996       O1001   1.268       .  A
C996       C1389   1.478       .  S
C997       C1446   1.473       .  S
O999       C1002   1.270       .  A
O1000      C1002   1.278       .  A
C1002      C1479   1.480       .  S
O1003      C1008   1.271       .  A
O1004      C1006   1.268       .  A
C1005      O1007   1.284       .  A
C1005      C1409   1.486       .  S
C1006      C1619   1.477       .  S
C1008      C1436   1.470       .  S
Fe1009     O1020   1.951       .  S
Fe1009     O1025   2.107   1_455  S
Fe1009     O1015   2.032       .  S
Fe1009     O1022   2.071       .  S
Fe1009     O1014   2.101       .  S
Fe1010     O1020   1.938       .  S
Fe1010     O1013   2.077       .  S
Fe1010     O1017   2.048       .  S
Fe1010     O1021   2.075       .  S
Fe1010     O1026   2.052       .  S
Fe1011     O1020   1.943       .  S
Fe1011     O1029   2.051       .  S
Fe1011     O1016   2.110       .  S
Fe1011     O1023   2.107       .  S
Fe1011     O1012   2.053       .  S
O1012      C1019   1.266       .  A
O1013      C1027   1.269       .  A
O1014      C1019   1.274       .  A
O1015      C1018   1.268       .  A
O1016      C1028   1.280       .  A
O1017      C1030   1.268   1_455  A
C1018      O1023   1.280       .  A
C1018      C1346   1.473       .  S
C1019      C1419   1.476       .  S
O1021      C1024   1.270       .  A
O1022      C1024   1.270       .  A
C1024      C1359   1.474       .  S
O1025      C1030   1.279       .  A
O1026      C1028   1.270       .  A
C1027      O1029   1.266       .  A
C1027      C1379   1.476       .  S
C1028      C1366   1.478       .  S
C1030      C1336   1.484       .  S
Fe1031     O1042   1.953       .  S
Fe1031     O1047   2.106   1_545  S
Fe1031     O1044   2.070   1_545  S
Fe1031     O1036   2.101       .  S
Fe1032     O1042   1.935       .  S
Fe1032     O1035   2.067       .  S
Fe1032     O1039   2.042   1_545  S
Fe1032     O1043   2.071   1_545  S
Fe1032     O1048   2.046       .  S
Fe1033     O1042   1.940       .  S
Fe1033     O1051   2.056       .  S
Fe1033     O1038   2.113       .  S
Fe1033     O1034   2.049       .  S
O1034      C1041   1.265       .  A
O1035      C1049   1.267       .  A
O1036      C1041   1.273       .  A
O1037      C1040   1.268       .  A
O1038      C1050   1.281       .  A
O1039      C1052   1.267       .  A
C1040      O1045   1.280       .  A
C1040      C1319   1.468       .  S
C1041      C1456   1.477       .  S
O1043      C1046   1.270       .  A
O1044      C1046   1.272       .  A
C1046      C1326   1.473       .  S
O1047      C1052   1.278       .  A
O1048      C1050   1.271       .  A
C1049      O1051   1.265       .  A
C1049      C1306   1.483       .  S
C1050      C1369   1.483       .  S
C1052      C1296   1.481       .  S
Fe1053     O1064   1.946       .  S
Fe1053     O1069   2.064       .  S
Fe1053     O1059   2.105       .  S
Fe1053     O1066   2.107   1_455  S
Fe1054     O1064   1.935       .  S
Fe1054     O1057   2.041       .  S
Fe1054     O1061   2.075       .  S
Fe1054     O1065   2.035       .  S
Fe1054     O1070   2.081       .  S
Fe1055     O1060   2.052       .  S
Fe1055     O1056   2.117       .  S
O1056      C1063   1.282       .  A
O1057      C1071   1.270       .  A
O1058      C1063   1.267       .  A
O1059      C1062   1.275       .  A
O1060      C1072   1.265       .  A
O1061      C1074   1.270       .  A
C1062      O1067   1.265       .  A
C1063      C1279   1.478       .  S
O1065      C1068   1.266   1_455  A
O1066      C1068   1.280       .  A
O1069      C1074   1.269       .  A
C1071      O1073   1.282       .  A
C1071      C1269   1.485       .  S
C1072      C1299   1.482       .  S
C1074      C1286   1.470   1_455  S
Fe1075     O1086   1.956       .  S
Fe1075     O1091   2.068       .  S
Fe1075     O1081   2.093       .  S
Fe1075     O1088   2.091   1_565  S
Fe1075     O1080   2.033       .  S
Fe1076     O1086   1.937       .  S
Fe1076     O1079   2.053       .  S
Fe1076     O1083   2.070       .  S
Fe1076     O1087   2.051       .  S
Fe1076     O1092   2.080       .  S
Fe1077     O1086   1.942       .  S
Fe1077     O1095   2.107       .  S
Fe1077     O1082   2.046       .  S
Fe1077     O1089   2.049       .  S
Fe1077     O1078   2.105       .  S
O1078      C1085   1.280       .  A
O1079      C1093   1.271       .  A
O1080      C1085   1.268       .  A
O1081      C1084   1.271       .  A
O1082      C1094   1.264       .  A
O1083      C1096   1.271       .  A
C1084      O1089   1.264       .  A
C1084      C1399   1.471       .  S
C1085      C1329   1.472       .  S
O1087      C1090   1.269   1_565  A
O1088      C1090   1.275       .  A
C1090      C1376   1.483       .  S
O1091      C1096   1.271       .  A
O1092      C1094   1.270       .  A
C1093      O1095   1.279       .  A
C1093      C1266   1.477       .  S
C1094      C1246   1.474       .  S
C1096      C1316   1.475       .  S
Fe1097     O1108   1.951       .  S
Fe1097     O1113   2.110   1_655  S
Fe1097     O1103   2.031       .  S
Fe1097     O1110   2.067       .  S
Fe1097     O1102   2.107       .  S
Fe1098     O1108   1.936       .  S
Fe1098     O1101   2.080       .  S
Fe1098     O1105   2.033   1_655  S
Fe1098     O1109   2.074       .  S
Fe1098     O1114   2.047       .  S
Fe1099     O1108   1.942       .  S
Fe1099     O1117   2.051       .  S
Fe1099     O1104   2.116       .  S
Fe1099     O1111   2.106       .  S
Fe1099     O1100   2.052       .  S
O1100      C1107   1.267       .  A
O1101      C1115   1.271       .  A
O1102      C1107   1.275       .  A
O1103      C1106   1.267       .  A
O1104      C1116   1.280       .  A
O1105      C1118   1.266       .  A
C1106      O1111   1.279       .  A
C1106      C1289   1.473       .  S
C1107      C1559   1.479       .  S
O1109      C1112   1.270   1_655  A
O1110      C1112   1.270   1_655  A
C1112      C1276   1.470       .  S
O1113      C1118   1.280       .  A
O1114      C1116   1.269       .  A
C1115      O1117   1.266       .  A
C1115      C1236   1.477       .  S
C1116      C1226   1.481       .  S
C1118      C1249   1.486       .  S
Fe1119     O1130   1.954       .  S
Fe1119     O1135   2.111   1_565  S
Fe1119     O1132   2.077       .  S
Fe1119     O1124   2.112       .  S
Fe1120     O1130   1.939       .  S
Fe1120     O1123   2.074       .  S
Fe1120     O1127   2.046       .  S
Fe1120     O1131   2.071       .  S
Fe1120     O1136   2.056       .  S
Fe1121     O1130   1.942       .  S
Fe1121     O1139   2.046       .  S
Fe1121     O1126   2.111       .  S
Fe1121     O1122   2.046       .  S
O1122      C1129   1.264       .  A
O1123      C1137   1.268       .  A
O1124      C1129   1.275       .  A
O1125      C1128   1.269       .  A
O1126      C1138   1.281       .  A
O1127      C1140   1.268   1_565  A
C1128      O1133   1.281       .  A
C1128      C1206   1.476       .  S
C1129      C1609   1.482       .  S
O1131      C1134   1.269       .  A
O1132      C1134   1.274       .  A
C1134      C1216   1.475       .  S
O1135      C1140   1.280       .  A
O1136      C1138   1.272       .  A
C1137      O1139   1.263       .  A
C1137      C1259   1.476       .  S
C1138      C1229   1.485       .  S
C1140      C1196   1.486       .  S
Fe1141     O1152   1.955       .  S
Fe1141     O1157   2.070       .  S
Fe1141     O1147   2.096       .  S
Fe1141     O1154   2.100   1_655  S
Fe1142     O1152   1.934       .  S
Fe1142     O1145   2.050       .  S
Fe1142     O1149   2.072       .  S
Fe1142     O1153   2.044   1_655  S
Fe1142     O1158   2.079       .  S
Fe1143     O1148   2.056       .  S
Fe1143     O1144   2.110       .  S
O1144      C1151   1.281       .  A
O1145      C1159   1.270       .  A
O1146      C1151   1.269       .  A
O1147      C1150   1.272       .  A
O1148      C1160   1.267       .  A
O1149      C1162   1.269   1_655  A
C1150      O1155   1.265       .  A
C1151      C1356   1.477       .  S
O1153      C1156   1.269       .  A
O1154      C1156   1.277       .  A
O1157      C1162   1.270   1_655  A
C1159      O1161   1.279       .  A
C1159      C1189   1.479       .  S
C1160      C1199   1.482       .  S
C1162      C1349   1.473       .  S
Fe1163     O1174   1.950       .  S
Fe1163     O1179   2.067   1_545  S
Fe1163     O1169   2.108       .  S
Fe1163     O1176   2.099   1_545  S
Fe1163     O1168   2.033       .  S
Fe1164     O1174   1.944       .  S
Fe1164     O1167   2.055       .  S
Fe1164     O1171   2.083   1_545  S
Fe1164     O1175   2.050   1_545  S
Fe1164     O1180   2.089       .  S
Fe1165     O1174   1.943       .  S
Fe1165     O1183   2.106       .  S
Fe1165     O1170   2.053       .  S
Fe1165     O1177   2.056       .  S
Fe1165     O1166   2.112       .  S
O1166      C1173   1.281       .  A
O1167      C1181   1.271       .  A
O1168      C1173   1.268       .  A
O1169      C1172   1.274       .  A
O1170      C1182   1.266       .  A
O1171      C1184   1.272       .  A
C1172      O1177   1.266       .  A
C1172      C1506   1.482       .  S
C1173      C1219   1.478       .  S
O1175      C1178   1.268       .  A
O1176      C1178   1.277       .  A
C1178      C1239   1.484       .  S
O1179      C1184   1.272       .  A
O1180      C1182   1.272       .  A
C1181      O1183   1.280       .  A
C1181      C1186   1.483       .  S
C1182      C1339   1.487       .  S
C1184      C1209   1.476       .  S
C1185      C1186   1.407       .  A
C1185      C1190   1.401       .  A
C1185      F1192   1.358       .  S
C1186      C1187   1.409       .  A
C1187      C1188   1.402       .  A
C1187      F1194   1.358       .  S
C1188      C1189   1.407       .  A
C1188      F1193   1.359       .  S
C1189      C1190   1.406       .  A
C1190      F1191   1.358       .  S
C1195      C1196   1.410       .  A
C1195      C1200   1.398       .  A
C1195      F1202   1.358       .  S
C1196      C1197   1.408       .  A
C1197      C1198   1.402       .  A
C1197      F1204   1.358       .  S
C1198      C1199   1.410       .  A
C1198      F1203   1.358       .  S
C1199      C1200   1.405       .  A
C1200      F1201   1.358       .  S
C1205      C1206   1.403       .  A
C1205      C1210   1.400       .  A
C1205      F1212   1.358       .  S
C1206      C1207   1.410       .  A
C1207      C1208   1.400       .  A
C1207      F1214   1.358       .  S
C1208      C1209   1.401       .  A
C1208      F1213   1.358   1_565  S
C1209      C1210   1.410       .  A
C1210      F1211   1.358       .  S
C1215      C1216   1.400       .  A
C1215      C1220   1.398       .  A
C1215      F1222   1.358       .  S
C1216      C1217   1.411   1_565  A
C1217      C1218   1.402       .  A
C1217      F1224   1.358       .  S
C1218      C1219   1.403       .  A
C1218      F1223   1.358       .  S
C1219      C1220   1.411   1_545  A
C1220      F1221   1.358       .  S
C1225      C1226   1.407       .  A
C1225      C1230   1.403       .  A
C1225      F1232   1.358       .  S
C1226      C1227   1.407       .  A
C1227      C1228   1.402       .  A
C1227      F1234   1.358       .  S
C1228      C1229   1.407       .  A
C1228      F1233   1.358       .  S
C1229      C1230   1.409       .  A
C1230      F1231   1.358       .  S
C1235      C1236   1.406       .  A
C1235      C1240   1.397       .  A
C1235      F1242   1.358       .  S
C1236      C1237   1.406       .  A
C1237      C1238   1.400       .  A
C1237      F1244   1.358       .  S
C1238      C1239   1.411       .  A
C1238      F1243   1.358       .  S
C1239      C1240   1.408       .  A
C1240      F1241   1.358       .  S
C1245      C1246   1.401       .  A
C1245      C1250   1.398       .  A
C1245      F1252   1.358       .  S
C1246      C1247   1.407       .  A
C1247      C1248   1.398       .  A
C1247      F1254   1.358       .  S
C1248      C1249   1.408       .  A
C1248      F1253   1.358       .  S
C1249      C1250   1.414       .  A
C1250      F1251   1.358       .  S
C1255      C1256   1.406       .  A
C1255      C1260   1.398       .  A
C1255      F1262   1.358       .  S
C1257      F1264   1.358       .  S
C1258      C1259   1.404       .  A
C1259      C1260   1.409       .  A
C1260      F1261   1.358       .  S
C1265      C1266   1.406       .  A
C1265      C1270   1.404       .  A
C1265      F1272   1.358       .  S
C1266      C1267   1.404       .  A
C1267      C1268   1.399       .  A
C1267      F1274   1.359       .  S
C1268      C1269   1.410       .  A
C1268      F1273   1.359       .  S
C1269      C1270   1.408       .  A
C1270      F1271   1.358       .  S
C1275      C1276   1.408       .  A
C1275      C1280   1.400       .  A
C1275      F1282   1.358       .  S
C1276      C1277   1.399       .  A
C1277      C1278   1.398       .  A
C1277      F1284   1.358   1_455  S
C1278      C1279   1.413       .  A
C1278      F1283   1.358       .  S
C1279      C1280   1.403       .  A
C1280      F1281   1.357       .  S
C1285      C1286   1.401   1_455  A
C1285      C1290   1.399   1_455  A
C1285      F1292   1.358       .  S
C1286      C1287   1.408       .  A
C1287      C1288   1.397       .  A
C1287      F1294   1.358       .  S
C1288      C1289   1.402       .  A
C1288      F1293   1.358       .  S
C1289      C1290   1.410       .  A
C1290      F1291   1.358   1_655  S
C1295      C1296   1.410       .  A
C1295      C1300   1.399       .  A
C1295      F1302   1.358       .  S
C1296      C1297   1.406       .  A
C1297      C1298   1.398       .  A
C1297      F1304   1.358       .  S
C1298      C1299   1.409       .  A
C1298      F1303   1.358       .  S
C1299      C1300   1.407       .  A
C1300      F1301   1.358       .  S
C1305      C1306   1.410       .  A
C1305      C1310   1.396       .  A
C1305      F1312   1.358       .  S
C1307      C1308   1.399       .  A
C1307      F1314   1.358       .  S
C1308      F1313   1.358       .  S
C1309      C1310   1.404       .  A
C1310      F1311   1.358       .  S
C1315      C1316   1.404       .  A
C1315      C1320   1.401   1_565  A
C1315      F1322   1.358       .  S
C1316      C1317   1.410   1_565  A
C1317      C1318   1.394       .  A
C1317      F1324   1.358       .  S
C1318      C1319   1.399       .  A
C1318      F1323   1.358       .  S
C1319      C1320   1.409       .  A
C1320      F1321   1.358   1_545  S
C1325      C1326   1.410       .  A
C1325      C1330   1.398       .  A
C1325      F1332   1.358       .  S
C1326      C1327   1.402       .  A
C1327      C1328   1.399       .  A
C1327      F1334   1.358   1_565  S
C1328      C1329   1.409       .  A
C1328      F1333   1.358       .  S
C1329      C1330   1.402       .  A
C1330      F1331   1.358       .  S
C1335      C1336   1.410       .  A
C1335      C1340   1.402       .  A
C1335      F1342   1.358   1_655  S
C1336      C1337   1.405       .  A
C1337      C1338   1.399       .  A
C1337      F1344   1.358       .  S
C1338      C1339   1.411       .  A
C1338      F1343   1.358       .  S
C1339      C1340   1.408       .  A
C1340      F1341   1.358       .  S
C1345      C1346   1.410       .  A
C1345      C1350   1.400       .  A
C1345      F1352   1.358       .  S
C1346      C1347   1.401       .  A
C1347      C1348   1.398       .  A
C1347      F1354   1.358       .  S
C1348      C1349   1.410       .  A
C1348      F1353   1.358       .  S
C1349      C1350   1.401       .  A
C1350      F1351   1.358   1_455  S
C1355      C1356   1.402       .  A
C1355      C1360   1.399       .  A
C1355      F1362   1.358       .  S
C1356      C1357   1.411   1_655  A
C1357      C1358   1.401       .  A
C1357      F1364   1.358       .  S
C1358      C1359   1.402       .  A
C1358      F1363   1.358       .  S
C1359      C1360   1.409   1_455  A
C1360      F1361   1.358       .  S
C1365      C1366   1.407       .  A
C1365      C1370   1.404       .  A
C1365      F1372   1.358       .  S
C1366      C1367   1.405       .  A
C1367      C1368   1.399       .  A
C1367      F1374   1.358       .  S
C1368      C1369   1.409       .  A
C1368      F1373   1.358       .  S
C1369      C1370   1.408       .  A
C1370      F1371   1.358       .  S
C1375      C1376   1.409       .  A
C1375      C1380   1.397       .  A
C1375      F1382   1.358       .  S
C1376      C1377   1.410       .  A
C1377      C1378   1.399       .  A
C1377      F1384   1.358       .  S
C1378      C1379   1.405       .  A
C1378      F1383   1.358       .  S
C1379      C1380   1.406       .  A
C1380      F1381   1.358       .  S
C1385      C1386   1.410       .  A
C1385      C1390   1.404       .  A
C1385      F1392   1.358       .  S
C1387      C1388   1.402       .  A
C1387      F1394   1.358       .  S
C1388      F1393   1.358       .  S
C1389      C1390   1.402       .  A
C1390      F1391   1.357       .  S
C1395      C1396   1.402       .  A
C1395      C1400   1.402       .  A
C1395      F1402   1.357       .  S
C1396      C1397   1.409       .  A
C1397      C1398   1.400       .  A
C1397      F1404   1.358       .  S
C1398      C1399   1.400       .  A
C1398      F1403   1.358       .  S
C1399      C1400   1.409       .  A
C1400      F1401   1.358       .  S
C1405      C1406   1.409       .  A
C1405      C1410   1.402       .  A
C1405      F1412   1.358       .  S
C1406      C1407   1.407       .  A
C1407      C1408   1.404       .  A
C1407      F1414   1.358       .  S
C1408      C1409   1.410       .  A
C1408      F1413   1.358       .  S
C1409      C1410   1.407       .  A
C1410      F1411   1.358       .  S
C1415      C1416   1.402       .  A
C1415      C1420   1.402       .  A
C1415      F1422   1.358       .  S
C1416      C1417   1.409       .  A
C1417      C1418   1.403       .  A
C1417      F1424   1.358       .  S
C1418      C1419   1.402       .  A
C1418      F1423   1.357       .  S
C1419      C1420   1.409       .  A
C1420      F1421   1.358       .  S
C1425      C1426   1.410       .  A
C1425      C1430   1.398       .  A
C1425      F1432   1.358       .  S
C1426      C1427   1.412       .  A
C1427      C1428   1.397       .  A
C1427      F1434   1.358       .  S
C1428      C1429   1.403       .  A
C1428      F1433   1.358       .  S
C1429      C1430   1.404       .  A
C1430      F1431   1.357       .  S
C1435      C1436   1.398       .  A
C1435      C1440   1.398       .  A
C1435      F1442   1.358       .  S
C1436      C1437   1.409       .  A
C1437      C1438   1.401       .  A
C1437      F1444   1.358       .  S
C1438      C1439   1.403       .  A
C1438      F1443   1.358       .  S
C1439      C1440   1.413       .  A
C1440      F1441   1.358       .  S
C1445      C1446   1.400       .  A
C1445      C1450   1.397       .  A
C1445      F1452   1.358       .  S
C1446      C1447   1.410       .  A
C1447      C1448   1.400       .  A
C1447      F1454   1.358       .  S
C1448      C1449   1.402       .  A
C1448      F1453   1.358       .  S
C1449      C1450   1.410       .  A
C1450      F1451   1.358       .  S
C1455      C1456   1.401       .  A
C1455      C1460   1.399       .  A
C1455      F1462   1.358       .  S
C1457      C1458   1.406       .  A
C1457      F1464   1.358       .  S
C1458      F1463   1.357       .  S
C1459      C1460   1.409       .  A
C1460      F1461   1.357       .  S
C1465      C1466   1.406       .  A
C1465      C1470   1.402       .  A
C1465      F1472   1.358       .  S
C1466      C1467   1.408       .  A
C1467      C1468   1.401       .  A
C1467      F1474   1.358       .  S
C1468      C1469   1.406       .  A
C1468      F1473   1.358       .  S
C1469      C1470   1.410       .  A
C1470      F1471   1.358       .  S
C1475      C1476   1.405       .  A
C1475      C1480   1.398       .  A
C1476      C1477   1.405       .  A
C1477      C1478   1.396       .  A
C1477      F1484   1.358       .  S
C1478      C1479   1.408       .  A
C1478      F1483   1.358       .  S
C1479      C1480   1.410       .  A
C1480      F1481   1.358       .  S
C1485      C1490   1.400       .  A
C1485      F1492   1.358       .  S
C1486      C1487   1.400       .  A
C1487      C1488   1.400       .  A
C1487      F1494   1.358       .  S
C1488      C1489   1.409       .  A
C1488      F1493   1.357       .  S
C1490      F1491   1.358       .  S
C1495      C1496   1.409       .  A
C1495      C1500   1.398       .  A
C1495      F1502   1.358       .  S
C1496      C1497   1.409       .  A
C1497      F1504   1.358       .  S
C1498      C1499   1.405   1_554  A
C1498      F1503   1.358       .  S
C1500      F1501   1.358       .  S
C1505      C1506   1.410       .  A
C1505      C1510   1.406       .  A
C1505      F1512   1.358       .  S
C1506      C1507   1.403       .  A
C1507      C1508   1.404       .  A
C1507      F1514   1.358       .  S
C1508      C1509   1.410       .  A
C1508      F1513   1.358       .  S
C1509      C1510   1.404       .  A
C1510      F1511   1.357       .  S
C1515      C1516   1.406       .  A
C1515      C1520   1.399       .  A
C1515      F1522   1.358       .  S
C1516      C1517   1.408       .  A
C1517      C1518   1.400       .  A
C1517      F1524   1.358       .  S
C1518      C1519   1.408       .  A
C1518      F1523   1.358       .  S
C1519      C1520   1.411       .  A
C1520      F1521   1.358       .  S
C1525      C1526   1.410       .  A
C1525      C1530   1.398       .  A
C1525      F1532   1.358       .  S
C1526      C1527   1.400       .  A
C1527      C1528   1.397       .  A
C1527      F1534   1.358       .  S
C1528      C1529   1.411       .  A
C1528      F1533   1.358       .  S
C1529      C1530   1.400       .  A
C1530      F1531   1.357       .  S
C1535      C1536   1.404       .  A
C1535      C1540   1.399       .  A
C1535      F1542   1.358       .  S
C1536      C1537   1.414       .  A
C1537      C1538   1.399       .  A
C1537      F1544   1.358       .  S
C1538      C1539   1.399       .  A
C1538      F1543   1.358       .  S
C1539      C1540   1.407       .  A
C1540      F1541   1.358       .  S
C1545      C1546   1.405       .  A
C1545      C1550   1.399       .  A
C1545      F1552   1.358       .  S
C1546      C1547   1.408       .  A
C1547      C1548   1.402       .  A
C1547      F1554   1.358       .  S
C1548      C1549   1.407       .  A
C1548      F1553   1.358       .  S
C1549      C1550   1.407       .  A
C1550      F1551   1.358       .  S
C1555      C1556   1.408       .  A
C1555      C1560   1.399       .  A
C1555      F1562   1.357       .  S
C1556      C1557   1.403       .  A
C1557      C1558   1.407       .  A
C1557      F1564   1.357       .  S
C1558      C1559   1.411       .  A
C1558      F1563   1.358       .  S
C1559      C1560   1.402       .  A
C1560      F1561   1.358       .  S
C1565      C1566   1.407       .  A
C1565      C1570   1.398       .  A
C1565      F1572   1.358       .  S
C1566      C1567   1.410       .  A
C1567      C1568   1.400       .  A
C1567      F1574   1.358       .  S
C1568      C1569   1.406       .  A
C1568      F1573   1.358       .  S
C1569      C1570   1.409       .  A
C1570      F1571   1.358       .  S
C1575      C1576   1.406       .  A
C1575      C1580   1.398       .  A
C1575      F1582   1.358       .  S
C1576      C1577   1.409       .  A
C1577      C1578   1.398       .  A
C1577      F1584   1.358       .  S
C1578      C1579   1.407       .  A
C1578      F1583   1.358       .  S
C1579      C1580   1.409       .  A
C1580      F1581   1.358       .  S
C1585      C1586   1.402       .  A
C1585      C1590   1.400       .  A
C1585      F1592   1.358       .  S
C1586      C1587   1.410       .  A
C1587      C1588   1.399       .  A
C1587      F1594   1.358       .  S
C1588      C1589   1.402       .  A
C1588      F1593   1.358       .  S
C1589      C1590   1.411       .  A
C1590      F1591   1.358       .  S
C1595      C1596   1.410       .  A
C1595      C1600   1.398       .  A
C1595      F1602   1.359       .  S
C1596      C1597   1.401       .  A
C1597      C1598   1.400       .  A
C1597      F1604   1.357       .  S
C1598      C1599   1.410       .  A
C1598      F1603   1.358       .  S
C1599      C1600   1.402       .  A
C1600      F1601   1.358       .  S
C1605      C1610   1.408   1_556  A
C1605      F1612   1.357       .  S
C1606      C1607   1.408       .  A
C1607      C1608   1.401       .  A
C1607      F1614   1.357       .  S
C1608      C1609   1.404       .  A
C1608      F1613   1.358       .  S
C1610      F1611   1.358   1_554  S
C1615      C1616   1.403       .  A
C1615      C1620   1.400       .  A
C1615      F1622   1.357       .  S
C1617      C1618   1.398       .  A
C1617      F1624   1.358       .  S
C1618      C1619   1.409       .  A
C1618      F1623   1.358       .  S
C1620      F1621   1.358       .  S
C1625      C1626   1.412       .  A
C1625      C1630   1.395       .  A
C1625      F1632   1.358       .  S
C1626      C1627   1.403       .  A
C1627      C1628   1.399       .  A
C1627      F1634   1.358       .  S
C1628      C1629   1.409       .  A
C1628      F1633   1.359       .  S
C1629      C1630   1.398       .  A
C1630      F1631   1.358       .  S
C1635      C1636   1.408       .  A
C1635      C1640   1.396       .  A
C1635      F1642   1.358       .  S
C1636      C1637   1.400       .  A
C1637      C1638   1.400       .  A
C1637      F1644   1.358       .  S
C1638      C1639   1.413       .  A
C1638      F1643   1.358       .  S
C1639      C1640   1.401       .  A
C1640      F1641   1.358       .  S
C1645      C1646   1.410       .  A
C1645      C1650   1.401       .  A
C1645      F1652   1.358       .  S
C1646      C1647   1.408       .  A
C1647      C1648   1.404       .  A
C1647      F1654   1.358       .  S
C1648      C1649   1.408       .  A
C1648      F1653   1.358       .  S
C1649      C1650   1.405       .  A
C1650      F1651   1.358       .  S
C1655      C1656   1.403       .  A
C1655      C1660   1.394       .  A
C1656      C1657   1.406       .  A
C1657      C1658   1.398       .  A
C1657      F1664   1.358       .  S
C1658      C1659   1.409       .  A
C1658      F1663   1.358       .  S
C1659      C1660   1.410       .  A
