geometry optimzed in LAMMPS
_audit_creation_date              2020-12-01 
_audit_creation_method            'lammps2cif' 
_symmetry_space_group_name_H-M    'P1' 
_symmetry_Int_Tables_number       1 
_symmetry_cell_setting            triclinic 
loop_ 
_symmetry_equiv_pos_as_xyz 
  x,y,z 
_cell_length_a                    33.19940937 
_cell_length_b                    33.22780825357974 
_cell_length_c                    67.55495259146377 
_cell_angle_alpha                 90.4429026955175 
_cell_angle_beta                  90.026161159392 
_cell_angle_gamma                 90.1503248494083 
loop_ 
_atom_site_label 
_atom_site_type_symbol 
_atom_site_fract_x 
_atom_site_fract_y 
_atom_site_fract_z 
_atom_site_charge 
Zn1        Zn  0.11369683  0.92792779  0.59743875     1.49700
Zn2        Zn  0.13052665  0.97901896  0.55840661     1.49400
Zn3        Zn  0.12953274  0.88036977  0.55801529     1.49100
Zn4        Zn  0.05050886  0.92916055  0.56441272     1.49500
O5          O  0.10729635  0.92964541  0.56915950    -1.84000
O6          O  0.14934852  0.97229240  0.60689820    -0.74700
O7          O  0.17510427  0.96103519  0.53955823    -0.74500
O8          O  0.16616216  0.85451119  0.57810257    -0.74000
O9          O  0.15628134  0.01434330  0.58160564    -0.74700
O10         O  0.13966107  0.87734814  0.60600588    -0.74300
O11         O  0.16572888  0.89493379  0.53476045    -0.74900
O12         O  0.02968317  0.87264750  0.55952169    -0.74300
O13         O  0.08778284  0.00658185  0.53998457    -0.75000
O14         O  0.08425270  0.83810426  0.55242649    -0.74400
O15         O  0.03767722  0.96190248  0.54101079    -0.74900
O16         O  0.02207440  0.95455252  0.58751159    -0.74800
O17         O  0.06224423  0.93659934  0.61181624    -0.74600
C18         C  0.16284642  0.00489551  0.59977387     0.77200
C19         C  0.18378211  0.92796835  0.53072813     0.77700
C20         C  0.16342652  0.85377373  0.59686932     0.76700
C21         C  0.04596660  0.83937955  0.55467600     0.77000
C22         C  0.05373761  0.99313089  0.53366778     0.78200
C23         C  0.02966971  0.95235452  0.60589484     0.77200
Zn24       Zn  0.33767052  0.14181084  0.65868318     1.49700
Zn25       Zn  0.28989530  0.12665609  0.69804288     1.49400
Zn26       Zn  0.38729089  0.13059583  0.69817934     1.49100
Zn27       Zn  0.34061885  0.20741884  0.69093007     1.49500
O28         O  0.33811547  0.15064292  0.68664521    -1.84000
O29         O  0.29444218  0.10371143  0.65007785    -0.74700
O30         O  0.30942499  0.08293962  0.71692111    -0.74500
O31         O  0.41209192  0.09248114  0.67872430    -0.74000
O32         O  0.25264147  0.10064844  0.67570679    -0.74700
O33         O  0.38976464  0.11796911  0.65054143    -0.74300
O34         O  0.37404290  0.09809731  0.72234943    -0.74900
O35         O  0.39722607  0.22980886  0.69408705    -0.74300
O36         O  0.26340913  0.17023730  0.71605251    -0.75000
O37         O  0.43037770  0.17504890  0.70286935    -0.74400
O38         O  0.30889823  0.21998394  0.71451239    -0.74900
O39         O  0.31469239  0.23527973  0.66861252    -0.74800
O40         O  0.32441145  0.19224793  0.64418457    -0.74600
C41         C  0.26138797  0.09210309  0.65760115     0.77200
C42         C  0.34247756  0.07767994  0.72631708     0.77700
C43         C  0.41357172  0.09507404  0.65999072     0.76700
C44         C  0.42976714  0.21283940  0.69939932     0.77000
C45         C  0.27765181  0.20418673  0.72202273     0.78200
C46         C  0.31206443  0.22627264  0.65044024     0.77200
Zn47       Zn  0.44835595  0.41660721  0.56947730     1.49700
Zn48       Zn  0.37696013  0.42637574  0.59989101     1.49400
Zn49       Zn  0.37382613  0.47308930  0.56045382     1.49100
Zn50       Zn  0.36872610  0.37385523  0.56076106     1.49500
O51         O  0.39116517  0.42264998  0.57240256    -1.84000
O52         O  0.47499549  0.43825428  0.59358003    -0.74700
O53         O  0.34331822  0.47334873  0.60703581    -0.74500
O54         O  0.42065922  0.49570873  0.54359788    -0.74000
O55         O  0.42565546  0.43704586  0.61566432    -0.74700
O56         O  0.46657711  0.44759380  0.54607575    -0.74300
O57         O  0.35077384  0.51449904  0.58161751    -0.74900
O58         O  0.33389177  0.38977570  0.53787143    -0.74300
O59         O  0.34744706  0.37779515  0.60870913    -0.75000
O60         O  0.32973944  0.45682991  0.54105491    -0.74400
O61         O  0.33125404  0.34864008  0.58025517    -0.74900
O62         O  0.41130309  0.32942809  0.55450328    -0.74800
O63         O  0.46658591  0.35902688  0.56581155    -0.74600
C64         C  0.46216285  0.44332562  0.61115676     0.77200
C65         C  0.33884631  0.50772866  0.59937286     0.77700
C66         C  0.45395859  0.47970619  0.53810622     0.76700
C67         C  0.31867175  0.42355899  0.53303753     0.77000
C68         C  0.32806398  0.35118729  0.59892158     0.78200
C69         C  0.44878066  0.32800940  0.55890414     0.77200
Zn70       Zn  0.13319526  0.67969694  0.66754425     1.49700
Zn71       Zn  0.22471210  0.67527594  0.68132791     1.49400
Zn72       Zn  0.14848432  0.66521989  0.71203182     1.49100
Zn73       Zn  0.17112300  0.59766032  0.68041399     1.49500
O74         O  0.16979679  0.65502050  0.68560545    -1.84000
O75         O  0.16246821  0.71290508  0.64788796    -0.74700
O76         O  0.24468091  0.70230451  0.70703232    -0.74500
O77         O  0.09491105  0.69806565  0.71258051    -0.74000
O78         O  0.22302414  0.72024290  0.66165473    -0.74700
O79         O  0.09283401  0.71597906  0.68114108    -0.74300
O80         O  0.18858794  0.70108787  0.72536065    -0.74900
O81         O  0.17446243  0.56809336  0.70606066    -0.74300
O82         O  0.26081658  0.63338785  0.66657496    -0.75000
O83         O  0.14671633  0.61209223  0.72723574    -0.74400
O84         O  0.21666766  0.58380478  0.66179550    -0.74900
O85         O  0.12015576  0.57949324  0.66721376    -0.74800
O86         O  0.10034001  0.63777418  0.65446176    -0.74600
C87         C  0.19702051  0.72942147  0.64864966     0.77200
C88         C  0.22449086  0.71314057  0.72234537     0.77700
C89         C  0.07932138  0.71897452  0.69871892     0.76700
C90         C  0.16063326  0.57712858  0.72311248     0.77000
C91         C  0.25034007  0.60047344  0.65795241     0.78200
C92         C  0.09612183  0.60009086  0.65678045     0.77200
Zn93       Zn  0.59678310  0.04330848  0.57700295     1.49700
Zn94       Zn  0.60841392  0.11923779  0.54718104     1.49400
Zn95       Zn  0.59502959  0.13457516  0.59205621     1.49100
Zn96       Zn  0.67563218  0.09445732  0.57827232     1.49500
O97         O  0.61837445  0.09767882  0.57335482    -1.84000
O98         O  0.56952241  0.02361487  0.55104878    -0.74700
O99         O  0.57550084  0.17271295  0.54759671    -0.74500
O100        O  0.56258183  0.10473531  0.61201303    -0.74000
O101        O  0.57158680  0.08030442  0.53350309    -0.74700
O102        O  0.55123808  0.04701239  0.59592273    -0.74300
O103        O  0.55686060  0.17387922  0.57908242    -0.74900
O104        O  0.69576090  0.14532398  0.59124828    -0.74300
O105        O  0.66183508  0.11994401  0.53168471    -0.75000
O106        O  0.63852435  0.16821678  0.60426603    -0.74400
O107        O  0.70462141  0.08923546  0.55214530    -0.74900
O108        O  0.68717628  0.04938799  0.59757949    -0.74800
O109        O  0.63613941  0.00686061  0.59312653    -0.74600
C110        C  0.55876266  0.04458107  0.53606401     0.77200
C111        C  0.55396261  0.18754841  0.56158467     0.77700
C112        C  0.54364138  0.07161692  0.60988027     0.76700
C113        C  0.67643877  0.17072635  0.60168129     0.77000
C114        C  0.69624707  0.10410528  0.53525615     0.78200
C115        C  0.66894506  0.01682240  0.60197156     0.77200
Zn116      Zn  0.79300697  0.89811610  0.70163122     1.49700
Zn117      Zn  0.84143849  0.89411035  0.66230338     1.49400
Zn118      Zn  0.89343508  0.90441006  0.70134701     1.49100
Zn119      Zn  0.84957467  0.82420832  0.69224861     1.49500
O120        O  0.84416378  0.88139072  0.68978446    -1.84000
O121        O  0.75190149  0.92090959  0.68023760    -0.74700
O122        O  0.88616951  0.92859631  0.65488412    -0.74500
O123        O  0.87565292  0.94002588  0.72407499    -0.74000
O124        O  0.79169935  0.92171542  0.65389666    -0.74700
O125        O  0.80843594  0.94314623  0.72034037    -0.74300
O126        O  0.92070893  0.94216022  0.68203483    -0.74900
O127        O  0.90666966  0.80577466  0.69597698    -0.74300
O128        O  0.84373925  0.84521690  0.64608944    -0.75000
O129        O  0.93711852  0.86074972  0.70731246    -0.74400
O130        O  0.83037466  0.79731625  0.66801630    -0.74900
O131        O  0.81839819  0.80463787  0.71493757    -0.74800
O132        O  0.77149599  0.85173436  0.71948142    -0.74600
C133        C  0.75810801  0.92933884  0.66193426     0.77200
C134        C  0.91467908  0.94685764  0.66361454     0.77700
C135        C  0.84125956  0.95502290  0.72838189     0.76700
C136        C  0.93792572  0.82324665  0.70271251     0.77000
C137        C  0.83553144  0.80908687  0.65038658     0.78200
C138        C  0.78754145  0.81785409  0.72388422     0.77200
Zn139      Zn  0.86728634  0.64871451  0.55696617     1.49700
Zn140      Zn  0.94588198  0.60374827  0.56508579     1.49400
Zn141      Zn  0.87955396  0.59577679  0.59623695     1.49100
Zn142      Zn  0.86266868  0.55048727  0.55723448     1.49500
O143        O  0.88812081  0.59898087  0.56842974    -1.84000
O144        O  0.91044023  0.68874901  0.54716641    -0.74700
O145        O  0.97699117  0.58668291  0.58894734    -0.74500
O146        O  0.86200356  0.64793440  0.60578601    -0.74000
O147        O  0.96515548  0.66084945  0.55939963    -0.74700
O148        O  0.84201246  0.68054954  0.57870332    -0.74300
O149        O  0.92825795  0.58162297  0.61093116    -0.74900
O150        O  0.83671649  0.51259828  0.57954848    -0.74300
O151        O  0.95922739  0.56703338  0.54321458    -0.75000
O152        O  0.84148620  0.55501962  0.60481430    -0.74400
O153        O  0.90694509  0.52427889  0.54006134    -0.74900
O154        O  0.81809280  0.56943516  0.53800094    -0.74800
O155        O  0.82571893  0.63615930  0.53604631    -0.74600
C156        C  0.94768708  0.69101994  0.55172809     0.77200
C157        C  0.96513435  0.57997852  0.60647813     0.77700
C158        C  0.84717384  0.67833336  0.59730470     0.76700
C159        C  0.82900524  0.52200709  0.59767239     0.77000
C160        C  0.94231039  0.53652652  0.53528304     0.78200
C161        C  0.80827739  0.60357618  0.53073017     0.77200
Zn162      Zn  0.63102741  0.35336761  0.66799444     1.49700
Zn163      Zn  0.72187700  0.35802086  0.68368794     1.49400
Zn164      Zn  0.66780972  0.43341554  0.68241368     1.49100
Zn165      Zn  0.64227802  0.36908814  0.71301440     1.49500
O166        O  0.66621644  0.37695504  0.68713235    -1.84000
O167        O  0.66183666  0.31851019  0.64955953    -0.74700
O168        O  0.75893291  0.40128749  0.66970546    -0.74500
O169        O  0.61713604  0.45215480  0.67041833    -0.74000
O170        O  0.72252254  0.31371406  0.66324881    -0.74700
O171        O  0.60093126  0.39606152  0.65399764    -0.74300
O172        O  0.71122472  0.44551481  0.66318930    -0.74900
O173        O  0.64017102  0.42292249  0.72806858    -0.74300
O174        O  0.73818289  0.33104226  0.71010758    -0.75000
O175        O  0.67353722  0.46390711  0.70774773    -0.74400
O176        O  0.68135925  0.33549233  0.72769988    -0.74900
O177        O  0.58872458  0.33571489  0.71219112    -0.74800
O178        O  0.58816222  0.31884474  0.68044691    -0.74600
C179        C  0.69702780  0.30347965  0.65008067     0.77200
C180        C  0.74659253  0.43230802  0.66024274     0.77700
C181        C  0.59514559  0.43292575  0.65829300     0.76700
C182        C  0.65733282  0.45660574  0.72441790     0.77000
C183        C  0.71708175  0.32243953  0.72548116     0.78200
C184        C  0.57349280  0.31556620  0.69775790     0.77200
Zn185      Zn  0.79058942  0.64389470  0.19631326     1.49700
Zn186      Zn  0.88762212  0.64759529  0.20015787     1.49400
Zn187      Zn  0.84341402  0.65012770  0.15876243     1.49100
Zn188      Zn  0.84239398  0.72439514  0.18774680     1.49500
O189        O  0.84047227  0.66634156  0.18589665    -1.84000
O190        O  0.80738172  0.59858751  0.21473147    -0.74700
O191        O  0.91834653  0.60909900  0.18303550    -0.74500
O192        O  0.80051301  0.61252248  0.15032864    -0.74000
O193        O  0.87015929  0.61478363  0.22364829    -0.74700
O194        O  0.75373939  0.61853030  0.17361248    -0.74300
O195        O  0.89551237  0.62418073  0.15321994    -0.74900
O196        O  0.82715132  0.74831637  0.16189355    -0.74300
O197        O  0.92960743  0.69267933  0.20551285    -0.75000
O198        O  0.83634274  0.69672986  0.14137557    -0.74400
O199        O  0.89872562  0.74624245  0.19343438    -0.74900
O200        O  0.80490852  0.74157706  0.20917965    -0.74800
O201        O  0.76519083  0.68804443  0.21421770    -0.74600
C202        C  0.83875411  0.59274878  0.22531047     0.77200
C203        C  0.92083416  0.60676400  0.16432272     0.77700
C204        C  0.76531033  0.60523727  0.15661547     0.76700
C205        C  0.82924470  0.73368132  0.14446357     0.77000
C206        C  0.93008973  0.72972980  0.20051332     0.78200
C207        C  0.77612835  0.72428912  0.21825633     0.77200
Zn208      Zn  0.63211396  0.48489496  0.05966926     1.49700
Zn209      Zn  0.62857477  0.43689334  0.09768206     1.49400
Zn210      Zn  0.55769268  0.42693255  0.06886695     1.49100
Zn211      Zn  0.63686636  0.38566035  0.05849178     1.49500
O212        O  0.61468371  0.43384889  0.07052867    -1.84000
O213        O  0.65853501  0.52212418  0.08215515    -0.74700
O214        O  0.58314519  0.45853122  0.11311150    -0.74500
O215        O  0.53881292  0.45853855  0.04568536    -0.74000
O216        O  0.67261867  0.47429970  0.10374340    -0.74700
O217        O  0.58333141  0.50832231  0.04370134    -0.74300
O218        O  0.53108393  0.44898498  0.09332003    -0.74900
O219        O  0.59336169  0.34595475  0.04784371    -0.74300
O220        O  0.64264647  0.38308330  0.10718568    -0.75000
O221        O  0.54175560  0.36834562  0.06533581    -0.74400
O222        O  0.66316879  0.35241529  0.07949762    -0.74900
O223        O  0.67868200  0.40300727  0.03866030    -0.74800
O224        O  0.67669065  0.47031925  0.04007709    -0.74600
C225        C  0.67622968  0.51039991  0.09807246     0.77200
C226        C  0.54576239  0.46098473  0.10975431     0.77700
C227        C  0.54997701  0.49182038  0.03824260     0.76700
C228        C  0.55806838  0.34060704  0.05500329     0.77000
C229        C  0.65760771  0.35304544  0.09812214     0.78200
C230        C  0.69177050  0.43750852  0.03337836     0.77200
Zn231      Zn  0.95881314  0.95276021  0.06939036     1.49700
Zn232      Zn  0.88769596  0.90020333  0.05642428     1.49400
Zn233      Zn  0.88716363  0.94700412  0.09842578     1.49100
Zn234      Zn  0.87563091  0.99630697  0.05957118     1.49500
O235        O  0.90127546  0.94941837  0.07096620    -1.84000
O236        O  0.98427189  0.89835902  0.06593409    -0.74700
O237        O  0.85801797  0.86430141  0.07470288    -0.74500
O238        O  0.93533557  0.95736611  0.11516815    -0.74000
O239        O  0.93725043  0.86434461  0.04965356    -0.74700
O240        O  0.98305390  0.97429247  0.09409569    -0.74300
O241        O  0.86486292  0.89289764  0.10446974    -0.74900
O242        O  0.85072250  0.03353131  0.08200521    -0.74300
O243        O  0.84796524  0.91254214  0.03427891    -0.75000
O244        O  0.84891547  0.98983524  0.10680388    -0.74400
O245        O  0.82965997  0.97509867  0.04234278    -0.74900
O246        O  0.91735791  0.02194046  0.04018888    -0.74800
O247        O  0.97267922  0.98584148  0.04634179    -0.74600
C248        C  0.97248282  0.86631334  0.05732485     0.77200
C249        C  0.85416410  0.86362694  0.09339160     0.77700
C250        C  0.97082176  0.96966032  0.11174242     0.76700
C251        C  0.84024251  0.02402375  0.09970475     0.77000
C252        C  0.82436656  0.94266367  0.03234934     0.78200
C253        C  0.95374408  0.01163110  0.03615678     0.77200
Zn254      Zn  0.64333720  0.16494124  0.21511571     1.49700
Zn255      Zn  0.62409475  0.16913605  0.17125430     1.49400
Zn256      Zn  0.71253450  0.17899252  0.18198245     1.49100
Zn257      Zn  0.66909991  0.09420222  0.18507086     1.49500
O258        O  0.66331214  0.15131994  0.18921951    -1.84000
O259        O  0.59258105  0.20125552  0.21439439    -0.74700
O260        O  0.65106873  0.18619093  0.14673768    -0.74500
O261        O  0.73581275  0.20720944  0.20654619    -0.74000
O262        O  0.58998340  0.21417414  0.18233755    -0.74700
O263        O  0.68525981  0.19966658  0.22811869    -0.74300
O264        O  0.69769545  0.22180769  0.16231748    -0.74900
O265        O  0.71558934  0.08382179  0.16587434    -0.74300
O266        O  0.58720682  0.12545268  0.16469817    -0.75000
O267        O  0.75007274  0.14152859  0.16603880    -0.74400
O268        O  0.61893917  0.06948690  0.17309688    -0.74900
O269        O  0.67319104  0.06893253  0.21183970    -0.74800
O270        O  0.63818959  0.11255998  0.23063558    -0.74600
C271        C  0.57798827  0.22115727  0.19992862     0.77200
C272        C  0.67428441  0.21638177  0.14758463     0.77700
C273        C  0.71938149  0.21430961  0.22335819     0.76700
C274        C  0.74469035  0.10556676  0.15962763     0.77000
C275        C  0.58859765  0.08746281  0.16593429     0.78200
C276        C  0.65503317  0.07830461  0.22790147     0.77200
Zn277      Zn  0.23006104  0.86904641  0.18607639     1.49700
Zn278      Zn  0.17385567  0.94108032  0.18482186     1.49400
Zn279      Zn  0.13898354  0.86301920  0.16953895     1.49100
Zn280      Zn  0.15040178  0.87429203  0.21478293     1.49500
O281        O  0.17351364  0.88497315  0.18919427    -1.84000
O282        O  0.26488697  0.91292877  0.17157117    -0.74700
O283        O  0.12188315  0.95959341  0.17415374    -0.74500
O284        O  0.17168415  0.82960193  0.15153391    -0.74000
O285        O  0.21523567  0.95436585  0.16449045    -0.74700
O286        O  0.23215272  0.82462151  0.16573854    -0.74300
O287        O  0.11032318  0.90612121  0.15501026    -0.74900
O288        O  0.09592381  0.84248610  0.21320386    -0.74300
O289        O  0.18156607  0.96933585  0.21037359    -0.75000
O290        O  0.09428870  0.82944820  0.18108830    -0.74400
O291        O  0.14939982  0.92726678  0.23065310    -0.74900
O292        O  0.19004619  0.83915860  0.22851011    -0.74800
O293        O  0.24899034  0.84527687  0.21287093    -0.74600
C294        C  0.25100966  0.94236686  0.16147643     0.77200
C295        C  0.10215859  0.94174967  0.16064813     0.77700
C296        C  0.20721476  0.81538516  0.15211148     0.76700
C297        C  0.07939427  0.82498399  0.19828775     0.77000
C298        C  0.16655634  0.96109200  0.22720877     0.78200
C299        C  0.22764346  0.83188695  0.22728271     0.77200
Zn300      Zn  0.38199576  0.05003229  0.05979714     1.49700
Zn301      Zn  0.38709305  0.10139450  0.09728692     1.49400
Zn302      Zn  0.46109864  0.10420714  0.07061163     1.49100
Zn303      Zn  0.38699916  0.14742844  0.05573216     1.49500
O304        O  0.40343752  0.10012828  0.07046575    -1.84000
O305        O  0.35343589  0.01457524  0.08221383    -0.74700
O306        O  0.43065802  0.08468037  0.11519857    -0.74500
O307        O  0.47880612  0.06977543  0.04838804    -0.74000
O308        O  0.34458768  0.06353961  0.10409020    -0.74700
O309        O  0.42879798  0.02521331  0.04369006    -0.74300
O310        O  0.48449149  0.08346617  0.09605143    -0.74900
O311        O  0.43398870  0.18261579  0.04555828    -0.74300
O312        O  0.37019630  0.15575483  0.10388802    -0.75000
O313        O  0.48104332  0.16169995  0.06610564    -0.74400
O314        O  0.36021943  0.18502330  0.07460868    -0.74900
O315        O  0.34697074  0.13149106  0.03469636    -0.74800
O316        O  0.33951875  0.06542709  0.03933734    -0.74600
C317        C  0.33785034  0.02772657  0.09847802     0.77200
C318        C  0.46780192  0.07798109  0.11278509     0.77700
C319        C  0.46385067  0.03928008  0.03950937     0.76700
C320        C  0.46777834  0.18823813  0.05423692     0.77000
C321        C  0.35988170  0.18549423  0.09341150     0.78200
C322        C  0.32987085  0.09801987  0.03058045     0.77200
Zn323      Zn  0.29699228  0.40331903  0.19609340     1.49700
Zn324      Zn  0.35544887  0.33042268  0.18762602     1.49400
Zn325      Zn  0.35115914  0.40244930  0.15819161     1.49100
Zn326      Zn  0.39584771  0.41030493  0.19947088     1.49500
O327        O  0.34950178  0.38768798  0.18559148    -1.84000
O328        O  0.27520586  0.35652295  0.21338373    -0.74700
O329        O  0.33935232  0.30445907  0.16266340    -0.74500
O330        O  0.30255990  0.43165668  0.14884689    -0.74000
O331        O  0.32238976  0.30956089  0.20937204    -0.74700
O332        O  0.25829803  0.42443980  0.17301141    -0.74300
O333        O  0.35404769  0.35360975  0.14154314    -0.74900
O334        O  0.42497012  0.44906686  0.18203463    -0.74300
O335        O  0.41229252  0.31299959  0.19301222    -0.75000
O336        O  0.39845043  0.43637503  0.15259716    -0.74400
O337        O  0.43954508  0.36772223  0.20647221    -0.74900
O338        O  0.37493535  0.44383117  0.22198689    -0.74800
O339        O  0.30869837  0.44755602  0.21641733    -0.74600
C340        C  0.29117017  0.32275657  0.21801026     0.77200
C341        C  0.34558808  0.31720837  0.14528450     0.77700
C342        C  0.26696702  0.43593922  0.15532767     0.76700
C343        C  0.42439202  0.45400852  0.16343314     0.77000
C344        C  0.44189777  0.33068046  0.20126325     0.78200
C345        C  0.34027485  0.45835578  0.22599102     0.77200
Zn346      Zn  0.06336242  0.63131717  0.07255684     1.49700
Zn347      Zn  0.14381111  0.66744105  0.06082992     1.49400
Zn348      Zn  0.13621334  0.61853633  0.10125447     1.49100
Zn349      Zn  0.13435196  0.56909469  0.06250634     1.49500
O350        O  0.12021565  0.62121374  0.07400251    -1.84000
O351        O  0.04854793  0.68988986  0.06941616    -0.74700
O352        O  0.18362147  0.69302146  0.07930282    -0.74500
O353        O  0.08813300  0.60662526  0.11820719    -0.74000
O354        O  0.10326354  0.71371382  0.05481471    -0.74700
O355        O  0.03778135  0.61241056  0.09701816    -0.74300
O356        O  0.16394331  0.66946348  0.10852810    -0.74900
O357        O  0.15668666  0.52859425  0.08451145    -0.74300
O358        O  0.17514427  0.64756308  0.03726881    -0.75000
O359        O  0.17356476  0.57321050  0.10759479    -0.74400
O360        O  0.17844096  0.58096428  0.04221039    -0.74900
O361        O  0.08484487  0.54954125  0.04599168    -0.74800
O362        O  0.04081855  0.59973422  0.05000392    -0.74600
C363        C  0.06725175  0.71859214  0.06110683     0.77200
C364        C  0.18424440  0.69406244  0.09811508     0.77700
C365        C  0.05091452  0.60356793  0.11407740     0.76700
C366        C  0.17343225  0.53712375  0.10125011     0.77000
C367        C  0.18915413  0.61280635  0.03301960     0.78200
C368        C  0.05178348  0.56729351  0.04146754     0.77200
Zn369      Zn  0.33298048  0.93174236  0.82965319     1.49700
Zn370      Zn  0.35971743  0.86600395  0.79724770     1.49400
Zn371      Zn  0.36927586  0.84837898  0.84177276     1.49100
Zn372      Zn  0.27894195  0.85521530  0.82506923     1.49500
O373        O  0.33500576  0.87486144  0.82318223    -1.84000
O374        O  0.33686883  0.96360228  0.80465536    -0.74700
O375        O  0.41351933  0.83263655  0.79757225    -0.74500
O376        O  0.39499373  0.88809959  0.85939003    -0.74000
O377        O  0.36174811  0.91979553  0.78269780    -0.74700
O378        O  0.37811664  0.94764324  0.84734812    -0.74300
O379        O  0.41491329  0.81769048  0.82924566    -0.74900
O380        O  0.27837346  0.80616037  0.84198703    -0.74300
O381        O  0.32112944  0.83177399  0.78214023    -0.75000
O382        O  0.33795175  0.80878072  0.85715967    -0.74400
O383        O  0.26179914  0.83249260  0.79778005    -0.74900
O384        O  0.24149065  0.89460377  0.84138609    -0.74800
O385        O  0.28405720  0.94529348  0.84623186    -0.74600
C386        C  0.34944353  0.95515890  0.78727811     0.77200
C387        C  0.42956564  0.81363289  0.81198514     0.77700
C388        C  0.39796598  0.92618692  0.85933561     0.76700
C389        C  0.30339909  0.79308129  0.85458395     0.77000
C390        C  0.28432335  0.82130057  0.78330765     0.78200
C391        C  0.25083000  0.92782443  0.85008489     0.77200
Zn392      Zn  0.13514637  0.10738827  0.90916086     1.49700
Zn393      Zn  0.06536717  0.12479013  0.93935221     1.49400
Zn394      Zn  0.13541992  0.06138436  0.94858016     1.49100
Zn395      Zn  0.14961254  0.16027669  0.94817333     1.49500
O396        O  0.12210518  0.11330890  0.93672192    -1.84000
O397        O  0.08575649  0.10012416  0.89362218    -0.74700
O398        O  0.04394510  0.09521836  0.96244119    -0.74500
O399        O  0.15276691  0.01757375  0.92684906    -0.74000
O400        O  0.03594359  0.10641896  0.91525887    -0.74700
O401        O  0.16565828  0.05830282  0.90176692    -0.74300
O402        O  0.08792629  0.04553407  0.96722817    -0.74900
O403        O  0.18677314  0.13985858  0.96972189    -0.74300
O404        O  0.05328475  0.18401725  0.94334687    -0.75000
O405        O  0.18350872  0.07267581  0.96648891    -0.74400
O406        O  0.11036485  0.20809784  0.95582482    -0.74900
O407        O  0.18639921  0.18386922  0.92749564    -0.74800
O408        O  0.16594152  0.15423854  0.89979292    -0.74600
C409        C  0.04863756  0.09901317  0.89786665     0.77200
C410        C  0.05522188  0.06407358  0.97171857     0.77700
C411        C  0.16617198  0.02343159  0.90921844     0.76700
C412        C  0.19910891  0.10452052  0.97403955     0.77000
C413        C  0.07337955  0.21301339  0.95086233     0.78200
C414        C  0.18710044  0.18058543  0.90873230     0.77200
Zn415      Zn  0.72118683  0.63702881  0.81057271     1.49700
Zn416      Zn  0.66624723  0.71562955  0.81626543     1.49400
Zn417      Zn  0.62312396  0.63531715  0.81246665     1.49100
Zn418      Zn  0.67427896  0.65412586  0.85035939     1.49500
O419        O  0.67215848  0.65963464  0.82213845    -1.84000
O420        O  0.74643369  0.68154131  0.79250325    -0.74700
O421        O  0.60831391  0.73439546  0.81290159    -0.74500
O422        O  0.63548353  0.59937881  0.78940864    -0.74000
O423        O  0.69709058  0.72731029  0.79221791    -0.74700
O424        O  0.70230212  0.59298557  0.79114873    -0.74300
O425        O  0.57696873  0.67637873  0.80759818    -0.74900
O426        O  0.62191644  0.63203533  0.86011622    -0.74300
O427        O  0.69126156  0.74763614  0.83777014    -0.75000
O428        O  0.60270731  0.59872784  0.83316913    -0.74400
O429        O  0.68954579  0.70634861  0.86312313    -0.74900
O430        O  0.71741725  0.61635164  0.85896865    -0.74800
O431        O  0.75852906  0.61088920  0.83314187    -0.74600
C432        C  0.72991682  0.71334402  0.78542749     0.77200
C433        C  0.57611598  0.71475058  0.80931428     0.77700
C434        C  0.66819318  0.58297922  0.78368687     0.76700
C435        C  0.59966928  0.60587588  0.85155662     0.77000
C436        C  0.69793435  0.74053240  0.85589531     0.78200
C437        C  0.74995682  0.60340099  0.85137941     0.77200
Zn438      Zn  0.87808919  0.49111223  0.95173589     1.49700
Zn439      Zn  0.88755873  0.39302921  0.95558053     1.49400
Zn440      Zn  0.89279647  0.43776103  0.91340845     1.49100
Zn441      Zn  0.95783669  0.44470768  0.94484125     1.49500
O442        O  0.90151201  0.44185934  0.94140939    -1.84000
O443        O  0.83390490  0.47226487  0.97018929    -0.74700
O444        O  0.85541944  0.35837310  0.93738748    -0.74500
O445        O  0.85771622  0.48214274  0.90306857    -0.74000
O446        O  0.84927079  0.40840950  0.97776003    -0.74700
O447        O  0.85218261  0.52551220  0.92824701    -0.74300
O448        O  0.86665561  0.38484704  0.90763976    -0.74900
O449        O  0.98123456  0.47430190  0.92238775    -0.74300
O450        O  0.93677078  0.35545200  0.96189152    -0.75000
O451        O  0.94625125  0.44115020  0.89951430    -0.74400
O452        O  0.98337641  0.38931578  0.94564084    -0.74900
O453        O  0.97022516  0.47391495  0.96957090    -0.74800
O454        O  0.92013593  0.51848867  0.97075187    -0.74600
C455        C  0.82781120  0.44008328  0.98002750     0.77200
C456        C  0.85278577  0.35710934  0.91863819     0.77700
C457        C  0.84507321  0.51542717  0.91009334     0.76700
C458        C  0.97793552  0.45979899  0.90506200     0.77000
C459        C  0.97187902  0.35717288  0.95404319     0.78200
C460        C  0.95341617  0.50432589  0.97746957     0.77200
Zn461      Zn  0.83910889  0.21956083  0.82202584     1.49700
Zn462      Zn  0.78740963  0.14174548  0.81111789     1.49400
Zn463      Zn  0.88473973  0.14221357  0.80957986     1.49100
Zn464      Zn  0.83703850  0.14474922  0.85041234     1.49500
O465        O  0.83680556  0.16163076  0.82321722    -1.84000
O466        O  0.80283646  0.23925468  0.80103687    -0.74700
O467        O  0.80351536  0.09538013  0.79316667    -0.74500
O468        O  0.92602203  0.18717709  0.80313071    -0.74000
O469        O  0.76666954  0.18582391  0.79209730    -0.74700
O470        O  0.89470497  0.23990982  0.81581871    -0.74300
O471        O  0.86874184  0.10643426  0.78689569    -0.74900
O472        O  0.88884860  0.11785678  0.85708562    -0.74300
O473        O  0.74673162  0.12104394  0.83299760    -0.75000
O474        O  0.91608191  0.10690972  0.82752158    -0.74400
O475        O  0.78994333  0.11082458  0.85761682    -0.74900
O476        O  0.83169578  0.19228089  0.86809677    -0.74800
O477        O  0.82589536  0.24423811  0.84794237    -0.74600
C478        C  0.77727146  0.22257795  0.78962741     0.77200
C479        C  0.83600838  0.08714906  0.78385540     0.77700
C480        C  0.92619507  0.22417338  0.80844784     0.76700
C481        C  0.91710432  0.10433295  0.84623442     0.77000
C482        C  0.75460030  0.10811962  0.85048545     0.78200
C483        C  0.82674389  0.22962055  0.86525170     0.77200
Zn484      Zn  0.59441725  0.98728710  0.93356882     1.49700
Zn485      Zn  0.60836204  0.90978740  0.96170383     1.49400
Zn486      Zn  0.59586831  0.89759850  0.91625673     1.49100
Zn487      Zn  0.67409030  0.94040790  0.93106251     1.49500
O488        O  0.61751613  0.93346057  0.93592347    -1.84000
O489        O  0.57364775  0.00625645  0.96041074    -0.74700
O490        O  0.57824518  0.85429952  0.96057292    -0.74500
O491        O  0.55502584  0.92640518  0.90025941    -0.74000
O492        O  0.57151746  0.94707092  0.97597783    -0.74700
O493        O  0.54446450  0.98233194  0.91799409    -0.74300
O494        O  0.56581020  0.85016112  0.92835161    -0.74900
O495        O  0.69541799  0.89292479  0.91669170    -0.74300
O496        O  0.66127066  0.91219298  0.97760781    -0.75000
O497        O  0.64042914  0.87445736  0.89992500    -0.74400
O498        O  0.70323509  0.94374888  0.95710778    -0.74900
O499        O  0.68399576  0.98755691  0.91264940    -0.74800
O500        O  0.62966665  0.02560660  0.91673734    -0.74600
C501        C  0.56226455  0.98411377  0.97479546     0.77200
C502        C  0.56161222  0.83642239  0.94579459     0.77700
C503        C  0.53430668  0.95738373  0.90462322     0.76700
C504        C  0.67799656  0.87184916  0.90348625     0.77000
C505        C  0.69512309  0.92939462  0.97413360     0.78200
C506        C  0.66355741  0.01872775  0.90838951     0.77200
Zn507      Zn  0.14874497  0.36398085  0.79359372     1.49700
Zn508      Zn  0.22979623  0.35624950  0.82129591     1.49400
Zn509      Zn  0.17369889  0.43137182  0.82468489     1.49100
Zn510      Zn  0.14015412  0.34575001  0.83701121     1.49500
O511        O  0.17364919  0.37434276  0.81903362    -1.84000
O512        O  0.18578447  0.32538457  0.78026699    -0.74700
O513        O  0.26619332  0.39751376  0.83704822    -0.74500
O514        O  0.17149508  0.46180281  0.79918909    -0.74000
O515        O  0.24650229  0.33309887  0.79410524    -0.74700
O516        O  0.14906727  0.41577944  0.77761057    -0.74300
O517        O  0.22219400  0.44674882  0.84148598    -0.74900
O518        O  0.11012719  0.38480086  0.85279799    -0.74300
O519        O  0.23255388  0.30931303  0.83984430    -0.75000
O520        O  0.12544843  0.44543606  0.84118040    -0.74400
O521        O  0.17269217  0.31218314  0.85460938    -0.74900
O522        O  0.09685374  0.31131690  0.82479703    -0.74800
O523        O  0.09158667  0.33755349  0.79494637    -0.74600
C524        C  0.22340649  0.31786482  0.78072974     0.77200
C525        C  0.25576898  0.43036166  0.84572203     0.77700
C526        C  0.16022202  0.45170294  0.78179359     0.76700
C527        C  0.10526671  0.42260488  0.85252330     0.77000
C528        C  0.20818418  0.29837265  0.85327651     0.78200
C529        C  0.07755329  0.31525849  0.80868992     0.77200
Zn530      Zn  0.33490118  0.59616363  0.93053270     1.49700
Zn531      Zn  0.40047111  0.62855424  0.96124911     1.49400
Zn532      Zn  0.41441447  0.54828802  0.93310642     1.49100
Zn533      Zn  0.41269742  0.63855440  0.91598349     1.49500
O534        O  0.39163643  0.60280362  0.93551502    -1.84000
O535        O  0.30604035  0.59388728  0.95645300    -0.74700
O536        O  0.43539756  0.59080573  0.97696258    -0.74500
O537        O  0.37656286  0.50766253  0.91784180    -0.74000
O538        O  0.34588499  0.63180533  0.97561199    -0.74700
O539        O  0.32419097  0.54755357  0.91320167    -0.74300
O540        O  0.43850613  0.53244541  0.96020964    -0.74900
O541        O  0.44998024  0.60867341  0.89874575    -0.74300
O542        O  0.43334285  0.68260760  0.95986126    -0.75000
O543        O  0.46108484  0.55118476  0.91462288    -0.74400
O544        O  0.44555235  0.68428332  0.92767132    -0.74900
O545        O  0.36857850  0.66245658  0.90015307    -0.74800
O546        O  0.31257395  0.64224609  0.91524057    -0.74600
C547        C  0.31266326  0.61295622  0.97258070     0.77200
C548        C  0.44728168  0.55446249  0.97531988     0.77700
C549        C  0.34259775  0.51475947  0.90955457     0.76700
C550        C  0.46911868  0.57594973  0.90093340     0.77000
C551        C  0.45117187  0.69848335  0.94500749     0.78200
C552        C  0.33060482  0.66353650  0.90246302     0.77200
Zn553      Zn  0.09014863  0.40405884  0.41806384     1.49700
Zn554      Zn  0.10392688  0.40790162  0.46255681     1.49400
Zn555      Zn  0.16910619  0.44301481  0.43386488     1.49100
Zn556      Zn  0.08848478  0.48831448  0.43662297     1.49500
O557        O  0.11281933  0.43612627  0.43828247    -1.84000
O558        O  0.05006664  0.36432194  0.42889221    -0.74700
O559        O  0.15754666  0.40658017  0.47786843    -0.74500
O560        O  0.19037810  0.39450042  0.42047121    -0.74000
O561        O  0.07460006  0.35279281  0.45872663    -0.74700
O562        O  0.13402894  0.37161166  0.40632901    -0.74300
O563        O  0.19814237  0.44526388  0.45954660    -0.74900
O564        O  0.12365336  0.52734057  0.42005371    -0.74300
O565        O  0.06498383  0.44223483  0.47731667    -0.75000
O566        O  0.17837742  0.48980583  0.41580106    -0.74400
O567        O  0.06837533  0.50348773  0.46415447    -0.74900
O568        O  0.03885048  0.48322154  0.41993833    -0.74800
O569        O  0.06040119  0.43699291  0.39851410    -0.74600
C570        C  0.05078380  0.34322859  0.44451418     0.77200
C571        C  0.19098481  0.42515192  0.47514661     0.77700
C572        C  0.17166348  0.36924412  0.40972475     0.76700
C573        C  0.15723926  0.52039650  0.41136735     0.77000
C574        C  0.05491510  0.47916822  0.47724374     0.78200
C575        C  0.03518608  0.46376095  0.40375592     0.77200
Zn576      Zn  0.27266190  0.68055995  0.32750216     1.49700
Zn577      Zn  0.31950242  0.60062946  0.32937405     1.49400
Zn578      Zn  0.35211954  0.66813770  0.30025486     1.49100
Zn579      Zn  0.36235997  0.67742341  0.34591840     1.49500
O580        O  0.32676686  0.65744201  0.32557559    -1.84000
O581        O  0.23180800  0.64287399  0.34174742    -0.74700
O582        O  0.31832481  0.57263065  0.30328144    -0.74500
O583        O  0.31622515  0.70663877  0.28611165    -0.74000
O584        O  0.27028690  0.58910427  0.34569922    -0.74700
O585        O  0.25619695  0.70481157  0.30066890    -0.74300
O586        O  0.35254488  0.61542224  0.28410827    -0.74900
O587        O  0.40903388  0.70978266  0.33463172    -0.74300
O588        O  0.36604121  0.57775853  0.34382701    -0.75000
O589        O  0.40718581  0.69837056  0.30238504    -0.74400
O590        O  0.38793678  0.63177703  0.36038494    -0.74900
O591        O  0.33253978  0.71558478  0.36345731    -0.74800
O592        O  0.27723766  0.72777852  0.34565108    -0.74600
C593        C  0.23778649  0.60809808  0.34921296     0.77200
C594        C  0.33561493  0.58127430  0.28703995     0.77700
C595        C  0.27942782  0.71719071  0.28682337     0.76700
C596        C  0.42372266  0.71524679  0.31744187     0.77000
C597        C  0.38928183  0.59430348  0.35638160     0.78200
C598        C  0.30146137  0.73652582  0.35962502     0.77200
Zn599      Zn  0.94946521  0.11088068  0.43562475     1.49700
Zn600      Zn  0.87493652  0.05425486  0.44604746     1.49400
Zn601      Zn  0.86838205  0.15275441  0.44570659     1.49100
Zn602      Zn  0.87715682  0.10179034  0.40585352     1.49500
O603        O  0.89173804  0.10453187  0.43351956    -1.84000
O604        O  0.97087534  0.07927938  0.45810586    -0.74700
O605        O  0.82951228  0.06918562  0.46543248    -0.74500
O606        O  0.91088418  0.19820012  0.45127723    -0.74000
O607        O  0.92238820  0.03442676  0.46380887    -0.74700
O608        O  0.96567891  0.16811315  0.43990147    -0.74300
O609        O  0.83422923  0.13608506  0.46908502    -0.74900
O610        O  0.84702208  0.15070302  0.39767919    -0.74300
O611        O  0.85415314  0.01208436  0.42436647    -0.75000
O612        O  0.83062036  0.17883178  0.42645963    -0.74400
O613        O  0.84574267  0.05289117  0.39883388    -0.74900
O614        O  0.92616937  0.09783701  0.38909718    -0.74800
O615        O  0.97666556  0.09582992  0.41051493    -0.74600
C616        C  0.95722490  0.04946871  0.46769493     0.77200
C617        C  0.81897607  0.10216731  0.47390242     0.77700
C618        C  0.94800802  0.19951146  0.44619429     0.76700
C619        C  0.82946106  0.17809003  0.40765241     0.77000
C620        C  0.84242088  0.01824889  0.40647266     0.78200
C621        C  0.96347864  0.09487970  0.39285562     0.77200
Zn622      Zn  0.63971845  0.86552883  0.29769125     1.49700
Zn623      Zn  0.63012337  0.85353826  0.34318794     1.49400
Zn624      Zn  0.71875102  0.85241071  0.32503331     1.49100
Zn625      Zn  0.67085995  0.93169842  0.32891560     1.49500
O626        O  0.66469069  0.87519387  0.32329954    -1.84000
O627        O  0.58428106  0.83499787  0.29947892    -0.74700
O628        O  0.66068455  0.81542064  0.35958833    -0.74500
O629        O  0.73695004  0.83281726  0.29754954    -0.74000
O630        O  0.58351914  0.82194432  0.33161151    -0.74700
O631        O  0.67747521  0.83023025  0.28209090    -0.74300
O632        O  0.71397175  0.80213750  0.34048829    -0.74900
O633        O  0.71926887  0.94242205  0.34645624    -0.74300
O634        O  0.60520070  0.89707866  0.35944694    -0.75000
O635        O  0.75754494  0.88839900  0.34185470    -0.74400
O636        O  0.62421952  0.95284576  0.34405005    -0.74900
O637        O  0.67173626  0.96150891  0.30352990    -0.74800
O638        O  0.63842344  0.91964337  0.28322489    -0.74600
C639        C  0.56784049  0.81824761  0.31449595     0.77200
C640        C  0.69035981  0.79349919  0.35460159     0.77700
C641        C  0.71487305  0.82170019  0.28290647     0.76700
C642        C  0.75099965  0.92246287  0.35023903     0.77000
C643        C  0.60297631  0.93486614  0.35683546     0.78200
C644        C  0.65496710  0.95379116  0.28695266     0.77200
Zn645      Zn  0.41247096  0.99752246  0.43379380     1.49700
Zn646      Zn  0.41491096  0.90786800  0.41497818     1.49400
Zn647      Zn  0.39847734  0.91611703  0.46026631     1.49100
Zn648      Zn  0.33408503  0.94764548  0.42920569     1.49500
O649        O  0.39081567  0.94227254  0.43483298    -1.84000
O650        O  0.46076077  0.99670270  0.41631757    -0.74700
O651        O  0.44687981  0.86087532  0.42677293    -0.74500
O652        O  0.43493904  0.95279162  0.47607393    -0.74000
O653        O  0.45315504  0.94008189  0.39870868    -0.74700
O654        O  0.43619097  0.01270965  0.46120020    -0.74300
O655        O  0.42739668  0.85981870  0.45815308    -0.74900
O656        O  0.30257353  0.94818783  0.45476922    -0.74300
O657        O  0.37180822  0.88193873  0.39845785    -0.75000
O658        O  0.34413648  0.91466791  0.47475249    -0.74400
O659        O  0.31519089  0.89972710  0.41387532    -0.74900
O660        O  0.32427633  0.99572758  0.41138242    -0.74800
O661        O  0.37503077  0.03721107  0.41826118    -0.74600
C662        C  0.47132370  0.97308709  0.40241151     0.77200
C663        C  0.44719584  0.84418269  0.44372477     0.77700
C664        C  0.44667748  0.98936244  0.47536226     0.76700
C665        C  0.30994907  0.93089240  0.47119651     0.77000
C666        C  0.33406720  0.87830476  0.40131435     0.78200
C667        C  0.34289626  0.02879688  0.40851122     0.77200
Zn668      Zn  0.17881585  0.23213653  0.31675943     1.49700
Zn669      Zn  0.22648586  0.15021161  0.30828498     1.49400
Zn670      Zn  0.17678114  0.15870691  0.34605946     1.49100
Zn671      Zn  0.12974130  0.15782532  0.30473254     1.49500
O672        O  0.17809003  0.17451163  0.31892009    -1.84000
O673        O  0.21452384  0.24611898  0.29445483    -0.74700
O674        O  0.26549735  0.12969907  0.33088900    -0.74500
O675        O  0.18804673  0.20610656  0.36257775    -0.74000
O676        O  0.25100650  0.19093427  0.28847505    -0.74700
O677        O  0.19809957  0.25676120  0.34209119    -0.74300
O678        O  0.22017834  0.12120623  0.35463309    -0.74900
O679        O  0.09556796  0.12561461  0.32299056    -0.74300
O680        O  0.20684479  0.10210408  0.29235900    -0.75000
O681        O  0.12313213  0.13627632  0.35263796    -0.74400
O682        O  0.14544911  0.11997390  0.28249279    -0.74900
O683        O  0.09068058  0.20446896  0.29778294    -0.74800
O684        O  0.12355307  0.25556252  0.31116316    -0.74600
C685        C  0.24114065  0.22732405  0.28453195     0.77200
C686        C  0.25591801  0.11725943  0.34823985     0.77700
C687        C  0.19757195  0.24241729  0.35950578     0.76700
C688        C  0.09463313  0.12323887  0.34174344     0.77000
C689        C  0.17546688  0.09598993  0.28178804     0.78200
C690        C  0.09154215  0.24128795  0.30342752     0.77200
Zn691      Zn  0.58360227  0.53936923  0.43132927     1.49700
Zn692      Zn  0.59005678  0.62153584  0.46053017     1.49400
Zn693      Zn  0.65738317  0.59594526  0.42995129     1.49100
Zn694      Zn  0.57249975  0.62996965  0.41588763     1.49500
O695        O  0.59993918  0.59639455  0.43464833    -1.84000
O696        O  0.56214483  0.52142364  0.45864578    -0.74700
O697        O  0.64384417  0.62631265  0.47614062    -0.74500
O698        O  0.67544976  0.54945586  0.41303261    -0.74000
O699        O  0.55654591  0.58054526  0.47491713    -0.74700
O700        O  0.62639995  0.50463684  0.41509670    -0.74300
O701        O  0.68769137  0.59775711  0.45557837    -0.74900
O702        O  0.61327112  0.65625758  0.39922908    -0.74300
O703        O  0.55775864  0.67659607  0.45904515    -0.75000
O704        O  0.67212661  0.64267442  0.41340569    -0.74400
O705        O  0.53997381  0.67644435  0.42743470    -0.74900
O706        O  0.53576471  0.59667169  0.39947310    -0.74800
O707        O  0.53548808  0.53590611  0.41310318    -0.74600
C708        C  0.54961871  0.54280620  0.47335023     0.77200
C709        C  0.67919882  0.61274851  0.47247024     0.77700
C710        C  0.66014457  0.51603827  0.40768709     0.76700
C711        C  0.65113165  0.66111908  0.40064328     0.77000
C712        C  0.53878344  0.69264224  0.44454521     0.78200
C713        C  0.52224903  0.56090356  0.40053357     0.77200
Zn714      Zn  0.86192594  0.37346805  0.29204189     1.49700
Zn715      Zn  0.87811930  0.35800797  0.33628871     1.49400
Zn716      Zn  0.83726465  0.43996165  0.32470552     1.49100
Zn717      Zn  0.78575194  0.36097978  0.32267004     1.49500
O718        O  0.84052630  0.38275586  0.31868506    -1.84000
O719        O  0.92045654  0.34907638  0.29154056    -0.74700
O720        O  0.90377525  0.40005304  0.35311810    -0.74500
O721        O  0.83553357  0.47061148  0.29921414    -0.74000
O722        O  0.92412124  0.32973122  0.32274490    -0.74700
O723        O  0.85748489  0.42624508  0.27674719    -0.74300
O724        O  0.88529096  0.45867533  0.34026571    -0.74900
O725        O  0.74723830  0.40119639  0.33709215    -0.74300
O726        O  0.85032544  0.31894311  0.35340855    -0.75000
O727        O  0.78893608  0.45241258  0.34235495    -0.74400
O728        O  0.78713814  0.31658399  0.34264268    -0.74900
O729        O  0.76733834  0.33417044  0.29669245    -0.74800
O730        O  0.82431231  0.33382433  0.27888694    -0.74600
C731        C  0.93927398  0.33111932  0.30548069     0.77200
C732        C  0.90633471  0.43817306  0.35220816     0.77700
C733        C  0.84534902  0.46156409  0.28147864     0.76700
C734        C  0.75547920  0.43474637  0.34566928     0.77000
C735        C  0.81471455  0.30499761  0.35430037     0.78200
C736        C  0.78796211  0.32259244  0.28164753     0.77200
C737        C  0.68981359  0.45137612  0.39225524    -0.01800
C738        C  0.68128557  0.49301638  0.39122345     0.07900
C739        C  0.69496855  0.51419922  0.37427047    -0.01900
C740        C  0.71710601  0.49470140  0.35908947    -0.01900
C741        C  0.72683901  0.45351741  0.36042670     0.08000
C742        C  0.71285526  0.43195187  0.37715346    -0.02100
Br743      Br  0.72855820  0.37654825  0.38041969    -0.00600
Br744      Br  0.67259373  0.42144693  0.41504916    -0.00700
Br745      Br  0.73373728  0.52480085  0.33608702    -0.00700
Br746      Br  0.68316979  0.57059716  0.37124408    -0.00600
C747        C  0.98852823  0.28460516  0.28717501    -0.01800
C748        C  0.98021213  0.31235504  0.30261805     0.07900
C749        C  0.01036765  0.31946831  0.31704696    -0.01900
C750        C  0.04624813  0.29660416  0.31728640    -0.01900
C751        C  0.05425868  0.26748202  0.30223742     0.08000
C752        C  0.02543064  0.26284117  0.28680603    -0.02100
Br753      Br  0.03648206  0.22750506  0.26466271    -0.00600
Br754      Br  0.94863501  0.27480977  0.26693775    -0.00700
Br755      Br  0.08211207  0.30395839  0.33967940    -0.00700
Br756      Br  0.00315925  0.36201556  0.33650744    -0.00600
C757        C  0.45246251  0.76913708  0.45142860    -0.01800
C758        C  0.47128741  0.80589738  0.44626649     0.07900
C759        C  0.51291192  0.80511513  0.44162938    -0.01900
C760        C  0.53488104  0.76847601  0.44169040    -0.01900
C761        C  0.51613349  0.73178473  0.44685716     0.08000
C762        C  0.47458388  0.73243617  0.45154753    -0.02100
Br763      Br  0.44726134  0.68234890  0.45663578    -0.00600
Br764      Br  0.39550263  0.76852139  0.45691572    -0.00700
Br765      Br  0.59050487  0.76801452  0.43339299    -0.00700
Br766      Br  0.54036304  0.85461166  0.43537021    -0.00600
C767        C  0.30292011  0.06076092  0.35790442    -0.01800
C768        C  0.28585059  0.09863556  0.36206276     0.07900
C769        C  0.29292130  0.11631936  0.38094929    -0.01900
C770        C  0.31390484  0.09505546  0.39590243    -0.01900
C771        C  0.32773727  0.05562719  0.39225553     0.08000
C772        C  0.32438257  0.03995839  0.37276873    -0.02100
Br773      Br  0.35146583  0.99069833  0.36618739    -0.00600
Br774      Br  0.29422412  0.03589763  0.33235430    -0.00700
Br775      Br  0.32301017  0.11957577  0.42143134    -0.00700
Br776      Br  0.27332182  0.16986012  0.38641127    -0.00600
C777        C  0.66949501  0.72358887  0.35558318    -0.01800
C778        C  0.69304376  0.75451694  0.36384359     0.07900
C779        C  0.70906713  0.75129470  0.38292939    -0.01900
C780        C  0.69742233  0.71905083  0.39489568    -0.01900
C781        C  0.67039981  0.68977518  0.38730170     0.08000
C782        C  0.65800898  0.69111131  0.36728139    -0.02100
Br783      Br  0.62263459  0.65076563  0.35591024    -0.00600
Br784      Br  0.64889310  0.72850674  0.32888776    -0.00700
Br785      Br  0.71382975  0.71920480  0.42233917    -0.00700
Br786      Br  0.74446328  0.79278306  0.39290486    -0.00600
C787        C  0.54104853  0.97635445  0.35966309    -0.01800
C788        C  0.57426015  0.95767646  0.36878269     0.07900
C789        C  0.57687158  0.95599698  0.38954511    -0.01900
C790        C  0.54451836  0.96924153  0.40106682    -0.01900
C791        C  0.50862882  0.98075969  0.39175674     0.08000
C792        C  0.50773740  0.98737149  0.37126409    -0.02100
Br793      Br  0.46025761  0.00974969  0.35930322    -0.00600
Br794      Br  0.53889141  0.98227353  0.33128234    -0.00700
Br795      Br  0.54762378  0.96774009  0.42955482    -0.00700
Br796      Br  0.62293872  0.93218103  0.40220211    -0.00600
C797        C  0.82381479  0.25187335  0.40258071    -0.01800
C798        C  0.81210604  0.21246158  0.39696374     0.07900
C799        C  0.79157715  0.20619482  0.37887003    -0.01900
C800        C  0.78900743  0.23759767  0.36506215    -0.01900
C801        C  0.80602267  0.27536615  0.36974267     0.08000
C802        C  0.82004448  0.28327787  0.38904642    -0.02100
Br803      Br  0.83603075  0.33714081  0.39670257    -0.00600
Br804      Br  0.85021684  0.26317124  0.42757508    -0.00700
Br805      Br  0.76583084  0.22759789  0.33926053    -0.00700
Br806      Br  0.76792683  0.15443171  0.37286190    -0.00600
C807        C  0.02841882  0.07098631  0.37853164    -0.01800
C808        C  0.99273894  0.09362531  0.37649087     0.07900
C809        C  0.98836269  0.12012447  0.36031400    -0.01900
C810        C  0.02111834  0.12702016  0.34767442    -0.01900
C811        C  0.05825568  0.10796470  0.35134051     0.08000
C812        C  0.06143010  0.07875169  0.36619513    -0.02100
Br813      Br  0.11158558  0.05052628  0.37009003    -0.00600
Br814      Br  0.03250449  0.02961056  0.39834997    -0.00700
Br815      Br  0.01617977  0.16668800  0.32695273    -0.00700
Br816      Br  0.93970937  0.15117803  0.35639539    -0.00600
C817        C  0.77097296  0.93745317  0.38563033    -0.01800
C818        C  0.77974708  0.93956379  0.36516524     0.07900
C819        C  0.81326579  0.96211685  0.35903591    -0.01900
C820        C  0.83620092  0.98438774  0.37298553    -0.01900
C821        C  0.82495269  0.98579288  0.39331195     0.08000
C822        C  0.79332738  0.96042412  0.39965320    -0.02100
Br823      Br  0.77871853  0.95882449  0.42725732    -0.00600
Br824      Br  0.72723316  0.90382661  0.39432759    -0.00700
Br825      Br  0.88363268  0.01265176  0.36396404    -0.00700
Br826      Br  0.82604218  0.96438063  0.33120865    -0.00600
C827        C  0.46259969  0.77880181  0.32677561    -0.01800
C828        C  0.45981560  0.74287533  0.31525314     0.07900
C829        C  0.49191227  0.73387154  0.30206020    -0.01900
C830        C  0.52626590  0.75948833  0.30087383    -0.01900
C831        C  0.52929966  0.79447202  0.31285301     0.08000
C832        C  0.49673167  0.80427489  0.32542909    -0.02100
Br833      Br  0.49841243  0.85396168  0.34057019    -0.00600
Br834      Br  0.41954450  0.79462118  0.34447863    -0.00700
Br835      Br  0.57036897  0.74528425  0.28363837    -0.00700
Br836      Br  0.49088250  0.68465192  0.28670905    -0.00600
C837        C  0.30329852  0.81045219  0.35964469    -0.01800
C838        C  0.29666390  0.77464038  0.37017765     0.07900
C839        C  0.29374349  0.77537621  0.39093159    -0.01900
C840        C  0.30170179  0.81125851  0.40130158    -0.01900
C841        C  0.31292852  0.84597542  0.39079375     0.08000
C842        C  0.31131570  0.84615309  0.37001614    -0.02100
Br843      Br  0.32233944  0.89456631  0.35565365    -0.00600
Br844      Br  0.30745291  0.80981571  0.33108584    -0.00700
Br845      Br  0.30170796  0.81159821  0.42986831    -0.00700
Br846      Br  0.28155143  0.72671660  0.40507676    -0.00600
C847        C  0.49347249  0.56055500  0.36698884    -0.01800
C848        C  0.48930430  0.55008703  0.38702214     0.07900
C849        C  0.45075906  0.54203360  0.39477584    -0.01900
C850        C  0.41651949  0.55365546  0.38403500    -0.01900
C851        C  0.42141122  0.57075933  0.36524443     0.08000
C852        C  0.45935047  0.57101637  0.35603743    -0.02100
Br853      Br  0.46487415  0.59008131  0.32924148    -0.00600
Br854      Br  0.54633367  0.56378150  0.35527009    -0.00700
Br855      Br  0.36357613  0.54991000  0.39559112    -0.00700
Br856      Br  0.44490724  0.51815389  0.42044081    -0.00600
C857        C  0.99175260  0.24916213  0.42846713    -0.01800
C858        C  0.97150842  0.23809040  0.44602875     0.07900
C859        C  0.97660113  0.26222940  0.46314246    -0.01900
C860        C  0.00229112  0.29651546  0.46282181    -0.01900
C861        C  0.02388672  0.30669253  0.44541934     0.08000
C862        C  0.01808857  0.28256928  0.42819620    -0.02100
Br863      Br  0.04738672  0.29333945  0.40398138    -0.00600
Br864      Br  0.98230059  0.21920471  0.40416858    -0.00700
Br865      Br  0.00596670  0.33043886  0.48606727    -0.00700
Br866      Br  0.94951460  0.24739442  0.48724888    -0.00600
C867        C  0.22067619  0.33803178  0.38660113    -0.01800
C868        C  0.19251847  0.33425564  0.40190810     0.07900
C869        C  0.17767967  0.29635100  0.40724207    -0.01900
C870        C  0.18314566  0.26360397  0.39445787    -0.01900
C871        C  0.20478012  0.26935109  0.37657262     0.08000
C872        C  0.22758567  0.30497581  0.37405449    -0.02100
Br873      Br  0.26743803  0.30898138  0.35338039    -0.00600
Br874      Br  0.24676603  0.38895436  0.38190819    -0.00700
Br875      Br  0.15665812  0.21351041  0.40115115    -0.00700
Br876      Br  0.14711874  0.29071153  0.43145315    -0.00600
C877        C  0.00378933  0.47920715  0.37134284    -0.01800
C878        C  0.99945467  0.46944616  0.39147406     0.07900
C879        C  0.96153392  0.45835656  0.39906573    -0.01900
C880        C  0.92896224  0.45340160  0.38610391    -0.01900
C881        C  0.93471394  0.45801453  0.36564044     0.08000
C882        C  0.97129415  0.47329615  0.35832050    -0.02100
Br883      Br  0.97798931  0.48238514  0.33035835    -0.00600
Br884      Br  0.05484313  0.49854322  0.36160077    -0.00700
Br885      Br  0.87677471  0.43797625  0.39607058    -0.00700
Br886      Br  0.95524869  0.44428647  0.42660636    -0.00600
C887        C  0.19349777  0.60934608  0.37999617    -0.01800
C888        C  0.20809290  0.58884733  0.36296548     0.07900
C889        C  0.19966775  0.54735325  0.36086324    -0.01900
C890        C  0.18095127  0.52596565  0.37629720    -0.01900
C891        C  0.17102607  0.54545609  0.39434339     0.08000
C892        C  0.17547339  0.58763407  0.39572305    -0.02100
Br893      Br  0.15938674  0.61523920  0.41963803    -0.00600
Br894      Br  0.19965833  0.66681689  0.38238828    -0.00700
Br895      Br  0.16782397  0.46971225  0.37233490    -0.00700
Br896      Br  0.21329160  0.51959913  0.33653249    -0.00600
C897        C  0.26015593  0.46140756  0.88007485    -0.01800
C898        C  0.28028933  0.44838757  0.86260531     0.07900
C899        C  0.32285136  0.45201492  0.86213869    -0.01900
C900        C  0.34415080  0.47053549  0.87818636    -0.01900
C901        C  0.32325288  0.48600180  0.89491849     0.08000
C902        C  0.28135529  0.47934233  0.89601269    -0.02100
Br903      Br  0.25278195  0.49343300  0.92005915    -0.00600
Br904      Br  0.20286618  0.45446485  0.88291256    -0.00700
Br905      Br  0.40190194  0.47562832  0.87685710    -0.00700
Br906      Br  0.35192869  0.43450960  0.83894387    -0.00600
C907        C  0.54586843  0.76337547  0.93832299    -0.01800
C908        C  0.53597324  0.79938002  0.94842597     0.07900
C909        C  0.49903099  0.80106144  0.95887284    -0.01900
C910        C  0.47137497  0.76827421  0.95812683    -0.01900
C911        C  0.48083239  0.73267673  0.94746005     0.08000
C912        C  0.51894660  0.73025638  0.93803934    -0.02100
Br913      Br  0.53525918  0.68093374  0.92493195    -0.00600
Br914      Br  0.59708595  0.75901098  0.92503257    -0.00700
Br915      Br  0.41910110  0.77378605  0.97024314    -0.00700
Br916      Br  0.48534016  0.84923115  0.97345028    -0.00600
C917        C  0.00949437  0.29899542  0.82276563    -0.01800
C918        C  0.03732471  0.29477569  0.80703984     0.07900
C919        C  0.02747424  0.26877088  0.79108573    -0.01900
C920        C  0.99074694  0.24669738  0.79109054    -0.01900
C921        C  0.96401237  0.24917018  0.80740585     0.08000
C922        C  0.97398745  0.27557162  0.82331230    -0.02100
Br923      Br  0.94117718  0.27804521  0.84702951    -0.00600
Br924      Br  0.01910095  0.33836938  0.84354690    -0.00700
Br925      Br  0.97664285  0.21418535  0.76833422    -0.00700
Br926      Br  0.06517729  0.26168802  0.76966596    -0.00600
C927        C  0.69896328  0.08238605  0.89804638    -0.01800
C928        C  0.67951130  0.04622347  0.89281305     0.07900
C929        C  0.67866985  0.03432197  0.87265051    -0.01900
C930        C  0.70081792  0.05592879  0.85824295    -0.01900
C931        C  0.72315530  0.09040612  0.86380140     0.08000
C932        C  0.72015839  0.10463707  0.88362167    -0.02100
Br933      Br  0.74523943  0.15496411  0.89117041    -0.00600
Br934      Br  0.69810699  0.10024325  0.92526518    -0.00700
Br935      Br  0.70292356  0.03649689  0.83130376    -0.00700
Br936      Br  0.64686788  0.98827533  0.86483589    -0.00600
C937        C  0.85786423  0.28428707  0.91176724    -0.01800
C938        C  0.83702053  0.32071852  0.90913216     0.07900
C939        C  0.80652925  0.32361752  0.89481346    -0.01900
C940        C  0.80010859  0.29169660  0.88148512    -0.01900
C941        C  0.82495290  0.25729016  0.88230532     0.08000
C942        C  0.85242209  0.25269846  0.89816617    -0.02100
Br943      Br  0.88716075  0.20611135  0.90017638    -0.00600
Br944      Br  0.89752100  0.27903814  0.93260157    -0.00700
Br945      Br  0.75809529  0.29591115  0.86180425    -0.00700
Br946      Br  0.77442432  0.37181200  0.89329371    -0.00600
C947        C  0.04906666  0.44210521  0.89958258    -0.01800
C948        C  0.01339117  0.45953429  0.89224433     0.07900
C949        C  0.01017375  0.46962287  0.87208747    -0.01900
C950        C  0.04187061  0.46028535  0.85907040    -0.01900
C951        C  0.07574781  0.43944720  0.86620673     0.08000
C952        C  0.07905481  0.43002288  0.88642213    -0.02100
Br953      Br  0.12227299  0.39652473  0.89614211    -0.00600
Br954      Br  0.05664694  0.43123379  0.92743942    -0.00700
Br955      Br  0.03651438  0.47128806  0.83117343    -0.00700
Br956      Br  0.96223861  0.49562732  0.86236110    -0.00600
C957        C  0.57479340  0.57639719  0.88313463    -0.01800
C958        C  0.56813192  0.58526986  0.86297678     0.07900
C959        C  0.52938497  0.57910205  0.85461217    -0.01900
C960        C  0.49659412  0.57192855  0.86712737    -0.01900
C961        C  0.50282071  0.56854594  0.88760938     0.08000
C962        C  0.54205649  0.56728625  0.89537684    -0.02100
Br963      Br  0.55081830  0.55766404  0.92316534    -0.00600
Br964      Br  0.62827186  0.57809430  0.89443321    -0.00700
Br965      Br  0.44249094  0.56999373  0.85650649    -0.00700
Br966      Br  0.51908695  0.58374867  0.82650050    -0.00600
C967        C  0.71789051  0.81277090  0.86098164    -0.01800
C968        C  0.71209472  0.77382165  0.86894984     0.07900
C969        C  0.71200293  0.76948690  0.88981386    -0.01900
C970        C  0.70575177  0.80353795  0.90178762    -0.01900
C971        C  0.70064545  0.84115975  0.89289445     0.08000
C972        C  0.71038859  0.84654396  0.87292921    -0.02100
Br973      Br  0.71120477  0.89983374  0.86192816    -0.00600
Br974      Br  0.73621092  0.82069256  0.83410415    -0.00700
Br975      Br  0.70030691  0.79861779  0.93012974    -0.00700
Br976      Br  0.71998744  0.71805914  0.90236661    -0.00600
C977        C  0.81647869  0.59139476  0.86969462    -0.01800
C978        C  0.77676020  0.57912441  0.86486385     0.07900
C979        C  0.75969311  0.54693260  0.87568977    -0.01900
C980        C  0.78087177  0.52880198  0.89148689    -0.01900
C981        C  0.82043215  0.54103163  0.89636485     0.08000
C982        C  0.83823459  0.57219311  0.88517059    -0.02100
Br983      Br  0.89276149  0.58817852  0.89105142    -0.00600
Br984      Br  0.84093248  0.63491555  0.85535040    -0.00700
Br985      Br  0.75528443  0.48715911  0.90682775    -0.00700
Br986      Br  0.70788808  0.52548770  0.86793545    -0.00600
C987        C  0.04307523  0.27426081  0.93512762    -0.01800
C988        C  0.05273591  0.25318481  0.95256201     0.07900
C989        C  0.03749620  0.26780471  0.97077775    -0.01900
C990        C  0.01111373  0.30149737  0.97139110    -0.01900
C991        C  0.99970723  0.32128848  0.95378154     0.08000
C992        C  0.01650946  0.30757195  0.93563731    -0.02100
Br993      Br  0.00111540  0.33239273  0.91098859    -0.00600
Br994      Br  0.06746007  0.25775304  0.91041064    -0.00700
Br995      Br  0.99151248  0.32132551  0.99646825    -0.00700
Br996      Br  0.05301611  0.24172550  0.99491745    -0.00600
C997        C  0.02313417  0.11081006  0.86382100    -0.01800
C998        C  0.01946747  0.09079279  0.88206954     0.07900
C999        C  0.98585368  0.06596689  0.88575075    -0.01900
C1000       C  0.95277605  0.06686769  0.87283065    -0.01900
C1001       C  0.95442074  0.09094065  0.85577667     0.08000
C1002       C  0.99099146  0.10992171  0.85042408    -0.02100
Br1003     Br  0.99652928  0.13926268  0.82593074    -0.00600
Br1004     Br  0.06968137  0.14398615  0.85785275    -0.00700
Br1005     Br  0.90494279  0.03615644  0.87875190    -0.00700
Br1006     Br  0.98529543  0.03079051  0.90840603    -0.00600
C1007       C  0.22382014  0.22820228  0.86242092    -0.01800
C1008       C  0.22021289  0.26879361  0.86794421     0.07900
C1009       C  0.21896010  0.27993926  0.88803136    -0.01900
C1010       C  0.21354442  0.25037144  0.90250197    -0.01900
C1011       C  0.21009379  0.20951408  0.89656891     0.08000
C1012       C  0.22048830  0.19846017  0.87693142    -0.02100
Br1013     Br  0.22835596  0.14268775  0.86956248    -0.00600
Br1014     Br  0.22710953  0.21318457  0.83481798    -0.00700
Br1015     Br  0.20713673  0.26749978  0.92972377    -0.00700
Br1016     Br  0.22089858  0.33628371  0.89528197    -0.00600
C1017       C  0.48951279  0.98113148  0.87784717    -0.01800
C1018       C  0.49484002  0.96075489  0.89571949     0.07900
C1019       C  0.46401560  0.93704779  0.90370380    -0.01900
C1020       C  0.42981159  0.92872524  0.89243026    -0.01900
C1021       C  0.42646026  0.94480671  0.87319761     0.08000
C1022       C  0.45495534  0.97336921  0.86645671    -0.02100
Br1023     Br  0.45003193  0.99817872  0.84081036    -0.00600
Br1024     Br  0.53099074  0.01704412  0.86856564    -0.00700
Br1025     Br  0.38969657  0.89253737  0.90305476    -0.00700
Br1026     Br  0.47071126  0.91282461  0.92941207    -0.00600
C1027       C  0.47045482  0.75243541  0.82229880    -0.01800
C1028       C  0.46541886  0.78576462  0.80934638     0.07900
C1029       C  0.49587453  0.79257892  0.79494917    -0.01900
C1030       C  0.53092662  0.76804695  0.79427012    -0.01900
C1031       C  0.53692025  0.73713183  0.80821067     0.08000
C1032       C  0.50638918  0.72960938  0.82219371    -0.02100
Br1033     Br  0.51523443  0.69006507  0.84255551    -0.00600
Br1034     Br  0.42763314  0.73544050  0.83985402    -0.00700
Br1035     Br  0.57093692  0.77623755  0.77396310    -0.00700
Br1036     Br  0.49134053  0.83632642  0.77647508    -0.00600
C1037       C  0.30229046  0.71946186  0.85729225    -0.01800
C1038       C  0.29400149  0.75719085  0.86589029     0.07900
C1039       C  0.28716011  0.76086888  0.88633644    -0.01900
C1040       C  0.29447142  0.72787066  0.89862839    -0.01900
C1041       C  0.30804707  0.69149417  0.89020523     0.08000
C1042       C  0.30906643  0.68634250  0.86952509    -0.02100
Br1043     Br  0.32357584  0.63489423  0.85817486    -0.00600
Br1044     Br  0.30988688  0.71458625  0.82905846    -0.00700
Br1045     Br  0.29163644  0.73418077  0.92699734    -0.00700
Br1046     Br  0.27170093  0.81219922  0.89743060    -0.00600
C1047       C  0.22153053  0.97480680  0.90013436    -0.01800
C1048       C  0.18298355  0.99045813  0.89632706     0.07900
C1049       C  0.16457087  0.98125615  0.87785500    -0.01900
C1050       C  0.18518696  0.95841613  0.86314087    -0.01900
C1051       C  0.22517277  0.94573388  0.86635798     0.08000
C1052       C  0.24253164  0.95307164  0.88526386    -0.02100
Br1053     Br  0.29583424  0.93372222  0.89089660    -0.00600
Br1054     Br  0.24683976  0.98592148  0.92531235    -0.00700
Br1055     Br  0.15963473  0.94678201  0.83813172    -0.00700
Br1056     Br  0.11131770  0.00150023  0.87243223    -0.00600
C1057       C  0.98253874  0.49835564  0.01154098    -0.01800
C1058       C  0.97409473  0.52249025  0.99486719     0.07900
C1059       C  0.99071917  0.56141110  0.99378345    -0.01900
C1060       C  0.01628273  0.57575908  0.00898073    -0.01900
C1061       C  0.02550202  0.55128066  0.02542309     0.08000
C1062       C  0.00783423  0.51284350  0.02682664    -0.02100
Br1063     Br  0.01690470  0.48078700  0.05009802    -0.00600
Br1064     Br  0.95919333  0.44523097  0.01352018    -0.00700
Br1065     Br  0.04045742  0.62838246  0.00663912    -0.00700
Br1066     Br  0.98087986  0.59393208  0.97075358    -0.00600
C1067       C  0.26074767  0.60524813  0.02276117    -0.01800
C1068       C  0.22008928  0.61005070  0.01743712     0.07900
C1069       C  0.20952774  0.61534285  0.99747730    -0.01900
C1070       C  0.23965563  0.61663826  0.98280837    -0.01900
C1071       C  0.28084233  0.61263675  0.98810115     0.08000
C1072       C  0.29109443  0.60664033  0.00821515    -0.02100
Br1073     Br  0.34638714  0.59867129  0.01613759    -0.00600
Br1074     Br  0.27475430  0.59753239  0.05022903    -0.00700
Br1075     Br  0.22372595  0.62590110  0.95567351    -0.00700
Br1076     Br  0.15342106  0.62006944  0.99030991    -0.00600
C1077       C  0.28267623  0.31300839  0.25425778    -0.01800
C1078       C  0.27594009  0.29890324  0.23480854     0.07900
C1079       C  0.26200474  0.25918438  0.23173422    -0.01900
C1080       C  0.25284163  0.23446761  0.24803475    -0.01900
C1081       C  0.25876556  0.24898487  0.26752402     0.08000
C1082       C  0.27457349  0.28802347  0.27051206    -0.02100
Br1083     Br  0.28663422  0.30671571  0.29699521    -0.00600
Br1084     Br  0.30489839  0.36604249  0.25864916    -0.00700
Br1085     Br  0.23006824  0.18166053  0.24358131    -0.00700
Br1086     Br  0.25466164  0.23907005  0.20509887    -0.00600
C1087       C  0.36073945  0.48510220  0.25947162    -0.01800
C1088       C  0.33718266  0.48900221  0.24207759     0.07900
C1089       C  0.31205283  0.52315661  0.23995491    -0.01900
C1090       C  0.31117431  0.55304411  0.25485123    -0.01900
C1091       C  0.33645521  0.55006005  0.27146034     0.08000
C1092       C  0.36059553  0.51574455  0.27395718    -0.02100
Br1093     Br  0.39351189  0.51075945  0.29741827    -0.00600
Br1094     Br  0.39205273  0.43713796  0.26431313    -0.00700
Br1095     Br  0.27357290  0.59705622  0.25320444    -0.00700
Br1096     Br  0.28008527  0.53096836  0.21638344    -0.00600
C1097       C  0.18513712  0.50703379  0.13530861    -0.01800
C1098       C  0.19227722  0.50571187  0.11453594     0.07900
C1099       C  0.21952173  0.47657295  0.10730513    -0.01900
C1100       C  0.24070637  0.45114910  0.12056943    -0.01900
C1101       C  0.23682063  0.45568157  0.14152893     0.08000
C1102       C  0.20718326  0.48261402  0.14862631    -0.02100
Br1103     Br  0.19709715  0.48767263  0.17669793    -0.00600
Br1104     Br  0.14433844  0.54221020  0.14595179    -0.00700
Br1105     Br  0.27365430  0.40858639  0.10954391    -0.00700
Br1106     Br  0.23046570  0.47337923  0.07928266    -0.00600
C1107       C  0.52884720  0.01263971  0.02624401    -0.01800
C1108       C  0.48783117  0.02194112  0.02315493     0.07900
C1109       C  0.47193890  0.02102305  0.00375671    -0.01900
C1110       C  0.49678599  0.01023495  0.98768120    -0.01900
C1111       C  0.53760686  0.00079806  0.99091769     0.08000
C1112       C  0.55352689  0.00188752  0.01019850    -0.02100
Br1113     Br  0.60967403  0.98926625  0.01449500    -0.00600
Br1114     Br  0.55168660  0.01433716  0.05245203    -0.00700
Br1115     Br  0.47465752  0.00733913  0.96129839    -0.00700
Br1116     Br  0.41699451  0.03726996  0.99890676    -0.00600
C1117       C  0.27095695  0.11740748  0.98326493    -0.01800
C1118       C  0.23318281  0.10051995  0.98798502     0.07900
C1119       C  0.22799394  0.08048148  0.00610868    -0.01900
C1120       C  0.25966841  0.07943507  0.01999045    -0.01900
C1121       C  0.29724267  0.09737082  0.01555572     0.08000
C1122       C  0.30285708  0.11601424  0.99700773    -0.02100
Br1123     Br  0.35446647  0.13891197  0.99003756    -0.00600
Br1124     Br  0.27960213  0.14052391  0.95743805    -0.00700
Br1125     Br  0.25003502  0.05643306  0.04574534    -0.00700
Br1126     Br  0.17691427  0.05561582  0.01221711    -0.00600
C1127       C  0.38888961  0.24408717  0.10959227    -0.01800
C1128       C  0.35399936  0.22320951  0.10362271     0.07900
C1129       C  0.31563549  0.23502427  0.11010733    -0.01900
C1130       C  0.31226437  0.26787414  0.12311093    -0.01900
C1131       C  0.34734316  0.28800928  0.12942895     0.08000
C1132       C  0.38557807  0.27658754  0.12256914    -0.02100
Br1133     Br  0.43381583  0.30220518  0.13280321    -0.00600
Br1134     Br  0.44170239  0.22545471  0.10169327    -0.00700
Br1135     Br  0.26033773  0.28419891  0.13306284    -0.00700
Br1136     Br  0.26873230  0.20426771  0.10250794    -0.00600
C1137       C  0.23102214  0.80880492  0.26264146    -0.01800
C1138       C  0.24522787  0.80562018  0.24291356     0.07900
C1139       C  0.27108946  0.77349980  0.23785722    -0.01900
C1140       C  0.28040151  0.74363922  0.25187017    -0.01900
C1141       C  0.26491785  0.74590314  0.27143678     0.08000
C1142       C  0.23992937  0.77878095  0.27664866    -0.02100
Br1143     Br  0.21794931  0.78402163  0.30304299    -0.00600
Br1144     Br  0.20164146  0.85618155  0.27110847    -0.00700
Br1145     Br  0.31247777  0.69813700  0.24336854    -0.00700
Br1146     Br  0.29376169  0.76935237  0.21162617    -0.00600
C1147       C  0.13410168  0.00677845  0.25209498    -0.01800
C1148       C  0.16918181  0.99233608  0.24280873     0.07900
C1149       C  0.20666522  0.01050369  0.24699980    -0.01900
C1150       C  0.20886709  0.04464956  0.25940850    -0.01900
C1151       C  0.17356566  0.05979773  0.26862889     0.08000
C1152       C  0.13638474  0.03947772  0.26544389    -0.02100
Br1153     Br  0.08831976  0.05418647  0.27995983    -0.00600
Br1154     Br  0.08229239  0.98359515  0.24548687    -0.00700
Br1155     Br  0.26053442  0.07109303  0.26250993    -0.00700
Br1156     Br  0.25548767  0.98786070  0.23597679    -0.00600
C1157       C  0.20141877  0.76659478  0.10279797    -0.01800
C1158       C  0.20657056  0.72609234  0.10845809     0.07900
C1159       C  0.22528441  0.71718950  0.12663001    -0.01900
C1160       C  0.23003071  0.74763693  0.14090894    -0.01900
C1161       C  0.21840454  0.78716636  0.13633659     0.08000
C1162       C  0.20841985  0.79723957  0.11673755    -0.02100
Br1163     Br  0.20059986  0.85299762  0.10968110    -0.00600
Br1164     Br  0.17934122  0.78073342  0.07730788    -0.00700
Br1165     Br  0.24647647  0.73364769  0.16728704    -0.00700
Br1166     Br  0.24165370  0.66275290  0.13238495    -0.00600
C1167       C  0.30273982  0.94237407  0.13305417    -0.01800
C1168       C  0.27505101  0.96322933  0.14547585     0.07900
C1169       C  0.26641677  0.00395103  0.14093681    -0.01900
C1170       C  0.28277847  0.02226088  0.12395304    -0.01900
C1171       C  0.31269335  0.00265637  0.11239970     0.08000
C1172       C  0.32253764  0.96241643  0.11719081    -0.02100
Br1173     Br  0.36453784  0.93496173  0.10277213    -0.00600
Br1174     Br  0.31305454  0.88586648  0.13701174    -0.00700
Br1175     Br  0.26224977  0.07451449  0.11630960    -0.00700
Br1176     Br  0.23452013  0.03710990  0.15871268    -0.00600
C1177       C  0.77205236  0.23055795  0.24879461    -0.01800
C1178       C  0.73853237  0.24240002  0.23755067     0.07900
C1179       C  0.72082289  0.28042188  0.24094076    -0.01900
C1180       C  0.73659114  0.30654378  0.25553674    -0.01900
C1181       C  0.76996778  0.29464446  0.26693207     0.08000
C1182       C  0.78765793  0.25652739  0.26353000    -0.02100
Br1183     Br  0.83210665  0.23897799  0.27972209    -0.00600
Br1184     Br  0.79554324  0.17822223  0.24438759    -0.00700
Br1185     Br  0.71356591  0.35930281  0.25932910    -0.00700
Br1186     Br  0.67536105  0.29708580  0.22515629    -0.00600
C1187       C  0.61838451  0.99659875  0.26237080    -0.01800
C1188       C  0.65470243  0.98579795  0.27183136     0.07900
C1189       C  0.69054722  0.00713523  0.26747762    -0.01900
C1190       C  0.68999952  0.03859397  0.25368174    -0.01900
C1191       C  0.65410464  0.04827083  0.24378489     0.08000
C1192       C  0.61826242  0.02737131  0.24814459    -0.02100
Br1193     Br  0.56927886  0.04010089  0.23416292    -0.00600
Br1194     Br  0.56825633  0.97106863  0.26966043    -0.00700
Br1195     Br  0.73826022  0.06940955  0.24854147    -0.00700
Br1196     Br  0.74113476  0.99255369  0.27960422    -0.00600
C1197       C  0.51336076  0.31472978  0.19172425    -0.01800
C1198       C  0.47979862  0.30722327  0.20393284     0.07900
C1199       C  0.48046964  0.27350836  0.21651332    -0.01900
C1200       C  0.51306236  0.24606132  0.21594833    -0.01900
C1201       C  0.54613065  0.25266896  0.20309602     0.08000
C1202       C  0.54686013  0.28854859  0.19182893    -0.02100
Br1203     Br  0.59432527  0.30321031  0.17693758    -0.00600
Br1204     Br  0.51180623  0.35874952  0.17329348    -0.00700
Br1205     Br  0.51031527  0.19811288  0.23184003    -0.00700
Br1206     Br  0.43587915  0.26462263  0.23427198    -0.00600
C1207       C  0.51570924  0.08002926  0.16335282    -0.01800
C1208       C  0.55390892  0.06547693  0.15802740     0.07900
C1209       C  0.55847270  0.04269889  0.14059510    -0.01900
C1210       C  0.52682618  0.04145614  0.12683551    -0.01900
C1211       C  0.49247447  0.06566752  0.12990833     0.08000
C1212       C  0.48525913  0.08203462  0.14902288    -0.02100
Br1213     Br  0.43705200  0.11200022  0.15543206    -0.00600
Br1214     Br  0.50789714  0.10256258  0.18952223    -0.00700
Br1215     Br  0.53072371  0.00709402  0.10386154    -0.00700
Br1216     Br  0.60957778  0.01847276  0.13421321    -0.00600
C1217       C  0.98623430  0.99957215  0.00347761    -0.01800
C1218       C  0.97509420  0.02710274  0.01855709     0.07900
C1219       C  0.99030522  0.06658519  0.01822621    -0.01900
C1220       C  0.01758867  0.07810822  0.00327474    -0.01900
C1221       C  0.02920681  0.05039875  0.98827313     0.08000
C1222       C  0.01303497  0.01117261  0.98836616    -0.02100
Br1223     Br  0.02645112  0.97363088  0.96748036    -0.00600
Br1224     Br  0.96416744  0.94569926  0.00348336    -0.00700
Br1225     Br  0.04120574  0.13120938  0.00426491    -0.00700
Br1226     Br  0.97502127  0.10419625  0.03876447    -0.00600
C1227       C  0.78042890  0.97261774  0.00573862    -0.01800
C1228       C  0.78983046  0.93993620  0.01820000     0.07900
C1229       C  0.76561237  0.90481832  0.01724349    -0.01900
C1230       C  0.73465413  0.90116236  0.00296451    -0.01900
C1231       C  0.72605288  0.93343894  0.99011093     0.08000
C1232       C  0.74821777  0.96972310  0.99216822    -0.02100
Br1233     Br  0.73341354  0.01684461  0.97716894    -0.00600
Br1234     Br  0.81250262  0.02130323  0.00640221    -0.00700
Br1235     Br  0.70566204  0.85083158  0.00060182    -0.00700
Br1236     Br  0.77273039  0.86240235  0.03635518    -0.00600
C1237       C  0.02902156  0.94550467  0.15794997    -0.01800
C1238       C  0.06667662  0.96056218  0.15230291     0.07900
C1239       C  0.07015334  0.98786372  0.13673173    -0.01900
C1240       C  0.03619669  0.99631500  0.12512692    -0.01900
C1241       C  0.99984274  0.97466968  0.12825892     0.08000
C1242       C  0.99550181  0.95157712  0.14578415    -0.02100
Br1243     Br  0.94623642  0.92381033  0.15282672    -0.00600
Br1244     Br  0.02474376  0.91365290  0.18171735    -0.00700
Br1245     Br  0.04045434  0.03685123  0.10486717    -0.00700
Br1246     Br  0.12213992  0.01044271  0.13033792    -0.00600
C1247       C  0.77749429  0.06209110  0.10962404    -0.01800
C1248       C  0.81815147  0.05229241  0.11317547     0.07900
C1249       C  0.83557176  0.06331496  0.13160672    -0.01900
C1250       C  0.81219962  0.08205266  0.14656956    -0.01900
C1251       C  0.77090999  0.08934329  0.14345781     0.08000
C1252       C  0.75405094  0.08055098  0.12465378    -0.02100
Br1253     Br  0.69863426  0.09438720  0.11939818    -0.00600
Br1254     Br  0.75315227  0.04775459  0.08462942    -0.00700
Br1255     Br  0.83619608  0.09593094  0.17172261    -0.00700
Br1256     Br  0.89165408  0.05189151  0.13653416    -0.00600
C1257       C  0.03097159  0.77185943  0.04129123    -0.01800
C1258       C  0.04654852  0.75838858  0.05951454     0.07900
C1259       C  0.03939290  0.78155749  0.07675907    -0.01900
C1260       C  0.01635434  0.81726057  0.07588076    -0.01900
C1261       C  0.99946192  0.83012059  0.05768563     0.08000
C1262       C  0.00780500  0.80759681  0.04034278    -0.02100
Br1263     Br  0.98923446  0.82676412  0.01509503    -0.00600
Br1264     Br  0.03976761  0.74012640  0.01775123    -0.00700
Br1265     Br  0.00660253  0.84720877  0.10010800    -0.00700
Br1266     Br  0.06093006  0.76393904  0.10182534    -0.00600
C1267       C  0.53908091  0.53596903  0.00783649    -0.01800
C1268       C  0.52321188  0.51040898  0.02272253     0.07900
C1269       C  0.48122658  0.50074111  0.02194958    -0.01900
C1270       C  0.45700043  0.51384103  0.00605838    -0.01900
C1271       C  0.47327827  0.53849019  0.99131331     0.08000
C1272       C  0.51381149  0.55089111  0.99273114    -0.02100
Br1273     Br  0.53452965  0.58923803  0.97394446    -0.00600
Br1274     Br  0.59564620  0.54976200  0.00691341    -0.00700
Br1275     Br  0.40057609  0.49958949  0.00476615    -0.00700
Br1276     Br  0.45462032  0.47164469  0.04295973    -0.00600
C1277       C  0.76049534  0.46298554  0.02401135    -0.01800
C1278       C  0.72620159  0.43926859  0.01943538     0.07900
C1279       C  0.72576084  0.41581936  0.00189496    -0.01900
C1280       C  0.75946830  0.41554799  0.98926382    -0.01900
C1281       C  0.79356863  0.43910790  0.99389695     0.08000
C1282       C  0.79392944  0.46309303  0.01116229    -0.02100
Br1283     Br  0.84095109  0.49506154  0.01746237    -0.00600
Br1284     Br  0.76299860  0.49379271  0.04836389    -0.00700
Br1285     Br  0.75837333  0.38416198  0.96506617    -0.00700
Br1286     Br  0.67816664  0.38576176  0.99443067    -0.00600
C1287       C  0.53387200  0.22715628  0.05188968    -0.01800
C1288       C  0.49114093  0.22694795  0.05149674     0.07900
C1289       C  0.47102497  0.26450417  0.05026227    -0.01900
C1290       C  0.49303710  0.30112275  0.05008855    -0.01900
C1291       C  0.53560683  0.30140680  0.05201008     0.08000
C1292       C  0.55579799  0.26386199  0.05268733    -0.02100
Br1293     Br  0.61351303  0.26176526  0.05638201    -0.00600
Br1294     Br  0.56316924  0.17699103  0.05065262    -0.00700
Br1295     Br  0.46399077  0.35106751  0.04680478    -0.00700
Br1296     Br  0.41280610  0.26711202  0.05026490    -0.00600
C1297       C  0.49683204  0.47208269  0.15999278    -0.01800
C1298       C  0.45675015  0.47672824  0.15354361     0.07900
C1299       C  0.44949625  0.49189792  0.13447792    -0.01900
C1300       C  0.48061520  0.49193933  0.12047703    -0.01900
C1301       C  0.51853853  0.47578718  0.12555455     0.08000
C1302       C  0.52780080  0.46987242  0.14586766    -0.02100
Br1303     Br  0.58095831  0.45454904  0.15487672    -0.00600
Br1304     Br  0.50943002  0.46607169  0.18778140    -0.00700
Br1305     Br  0.47059509  0.51334433  0.09444256    -0.00700
Br1306     Br  0.39626711  0.51016245  0.12732392    -0.00600
C1307       C  0.70181953  0.30136673  0.11345116    -0.01800
C1308       C  0.66323418  0.31617424  0.10919099     0.07900
C1309       C  0.62853543  0.29556742  0.11542477    -0.01900
C1310       C  0.63223423  0.26047178  0.12648434    -0.01900
C1311       C  0.67094915  0.24726916  0.13230463     0.08000
C1312       C  0.70574555  0.26668849  0.12504425    -0.02100
Br1313     Br  0.75850014  0.24466652  0.13007176    -0.00600
Br1314     Br  0.74887433  0.32996772  0.10443452    -0.00700
Br1315     Br  0.58338065  0.23221809  0.13384979    -0.00700
Br1316     Br  0.57548369  0.31630498  0.10930892    -0.00600
C1317       C  0.73639317  0.78298431  0.23083887    -0.01800
C1318       C  0.75717323  0.74699278  0.23470272     0.07900
C1319       C  0.76571712  0.73640042  0.25443972    -0.01900
C1320       C  0.75275290  0.76115130  0.27025298    -0.01900
C1321       C  0.73202553  0.79737194  0.26640112     0.08000
C1322       C  0.72423455  0.80828449  0.24656865    -0.02100
Br1323     Br  0.69897464  0.85917288  0.24076470    -0.00600
Br1324     Br  0.72437550  0.79739275  0.20386101    -0.00700
Br1325     Br  0.76235673  0.74435532  0.29714503    -0.00700
Br1326     Br  0.79740494  0.68907546  0.25975411    -0.00600
C1327       C  0.87343471  0.53261886  0.23971451    -0.01800
C1328       C  0.83959091  0.55844767  0.23930683     0.07900
C1329       C  0.80652183  0.55040559  0.25184410    -0.01900
C1330       C  0.80783438  0.51769314  0.26499411    -0.01900
C1331       C  0.84260360  0.49331771  0.26617427     0.08000
C1332       C  0.87518354  0.50065238  0.25326808    -0.02100
Br1333     Br  0.92333941  0.46821245  0.25457512    -0.00600
Br1334     Br  0.91691246  0.53915884  0.22094565    -0.00700
Br1335     Br  0.76080017  0.50518778  0.28067007    -0.00700
Br1336     Br  0.75967672  0.58480107  0.25175235    -0.00600
C1337       C  0.03639744  0.76511267  0.18765924    -0.01800
C1338       C  0.04205924  0.79909808  0.20033662     0.07900
C1339       C  0.01035758  0.80943581  0.21356434    -0.01900
C1340       C  0.97389183  0.78689278  0.21374528    -0.01900
C1341       C  0.96875970  0.75313148  0.20117887     0.08000
C1342       C  0.99990275  0.74307320  0.18787879    -0.02100
Br1343     Br  0.99073843  0.70133930  0.16831988    -0.00600
Br1344     Br  0.07870825  0.74687551  0.17003330    -0.00700
Br1345     Br  0.93001728  0.80310117  0.23069234    -0.00700
Br1346     Br  0.01526701  0.85558300  0.23093487    -0.00600
C1347       C  0.99463967  0.59406795  0.16264523    -0.01800
C1348       C  0.95574813  0.58720819  0.15489117     0.07900
C1349       C  0.95165404  0.57214040  0.13546393    -0.01900
C1350       C  0.98498035  0.57209878  0.12278639    -0.01900
C1351       C  0.02151979  0.59020069  0.12912416     0.08000
C1352       C  0.02718576  0.59846890  0.14955400    -0.02100
Br1353     Br  0.07669273  0.62110482  0.15986986    -0.00600
Br1354     Br  0.00343949  0.60034629  0.19081157    -0.00700
Br1355     Br  0.97936059  0.54831114  0.09665290    -0.00700
Br1356     Br  0.89979858  0.55392699  0.12580991    -0.00600
C1357       C  0.85577355  0.75804185  0.11218998    -0.01800
C1358       C  0.82698524  0.76111040  0.12757493     0.07900
C1359       C  0.80110059  0.79462198  0.12854469    -0.01900
C1360       C  0.80851786  0.82798898  0.11652565    -0.01900
C1361       C  0.84009248  0.82663499  0.10268763     0.08000
C1362       C  0.86197779  0.79080086  0.09961948    -0.02100
Br1363     Br  0.90428611  0.78789665  0.07995176    -0.00600
Br1364     Br  0.89047086  0.71146974  0.10930523    -0.00700
Br1365     Br  0.77671636  0.87616101  0.11961059    -0.00700
Br1366     Br  0.75557630  0.79478800  0.14631998    -0.00600
C1367       C  0.68513290  0.57510585  0.11827103    -0.01800
C1368       C  0.70041679  0.53775079  0.11138940     0.07900
C1369       C  0.73579187  0.52251208  0.12037066    -0.01900
C1370       C  0.75389566  0.54275728  0.13653225    -0.01900
C1371       C  0.73918906  0.58033000  0.14318386     0.08000
C1372       C  0.70495792  0.59662997  0.13375592    -0.02100
Br1373     Br  0.68609313  0.64912503  0.14163488    -0.00600
Br1374     Br  0.63627241  0.59636267  0.10709657    -0.00700
Br1375     Br  0.79852378  0.51803010  0.15019660    -0.00700
Br1376     Br  0.76127986  0.47450932  0.10993803    -0.00600
C1377       C  0.70776243  0.26628123  0.75003502    -0.01800
C1378       C  0.73313485  0.29567605  0.74123855     0.07900
C1379       C  0.77297707  0.29994862  0.74809032    -0.01900
C1380       C  0.78776658  0.27448411  0.76300291    -0.01900
C1381       C  0.76177772  0.24671575  0.77266228     0.08000
C1382       C  0.72159726  0.24294663  0.76603237    -0.02100
Br1383     Br  0.68433669  0.20740777  0.77931876    -0.00600
Br1384     Br  0.65401978  0.25623626  0.73991294    -0.00700
Br1385     Br  0.84484888  0.27672061  0.76890704    -0.00700
Br1386     Br  0.80682477  0.34278511  0.73823206    -0.00600
C1387       C  0.68452350  0.48360664  0.75630236    -0.01800
C1388       C  0.65906173  0.48821889  0.73983463     0.07900
C1389       C  0.63721635  0.52410763  0.73744630    -0.01900
C1390       C  0.64067118  0.55539165  0.75154659    -0.01900
C1391       C  0.66598770  0.55082499  0.76827826     0.08000
C1392       C  0.68758501  0.51447060  0.77065002    -0.02100
Br1393     Br  0.71949355  0.50523606  0.79409069    -0.00600
Br1394     Br  0.71652801  0.43541782  0.75867665    -0.00700
Br1395     Br  0.61146104  0.60484682  0.74727405    -0.00700
Br1396     Br  0.60202644  0.53002909  0.71486033    -0.00600
C1397       C  0.02299701  0.47488518  0.51114858    -0.01800
C1398       C  0.02493977  0.49296427  0.49213690     0.07900
C1399       C  0.99534572  0.52163639  0.48684734    -0.01900
C1400       C  0.96668611  0.53422626  0.50083540    -0.01900
C1401       C  0.96525501  0.51644852  0.51960817     0.08000
C1402       C  0.99249400  0.48600039  0.52455188    -0.02100
Br1403     Br  0.98847148  0.46079405  0.55014779    -0.00600
Br1404     Br  0.06292569  0.43669732  0.51992990    -0.00700
Br1405     Br  0.93006572  0.57731576  0.49466461    -0.00700
Br1406     Br  0.99153119  0.54271477  0.46028707    -0.00600
C1407       C  0.73529981  0.59732653  0.52141783    -0.01800
C1408       C  0.77528470  0.60602363  0.51590544     0.07900
C1409       C  0.78324907  0.61970505  0.49659634    -0.01900
C1410       C  0.75187481  0.62265906  0.48258334    -0.01900
C1411       C  0.71156973  0.61346141  0.48794279     0.08000
C1412       C  0.70345496  0.60202494  0.50772669    -0.02100
Br1413     Br  0.64905955  0.59208752  0.51643504    -0.00600
Br1414     Br  0.72418352  0.57986146  0.54806765    -0.00700
Br1415     Br  0.76477049  0.64102728  0.45621376    -0.00700
Br1416     Br  0.83753452  0.63390626  0.48914593    -0.00600
C1417       C  0.77837712  0.51523526  0.62486544    -0.01800
C1418       C  0.80568139  0.49598936  0.61180337     0.07900
C1419       C  0.81610281  0.45546895  0.61560668    -0.01900
C1420       C  0.79821115  0.43428882  0.63168230    -0.01900
C1421       C  0.77165384  0.45423942  0.64502045     0.08000
C1422       C  0.76405919  0.49569353  0.64190708    -0.02100
Br1423     Br  0.73708394  0.52790867  0.66192463    -0.00600
Br1424     Br  0.75909080  0.56894504  0.61927436    -0.00700
Br1425     Br  0.81053967  0.37809543  0.63514057    -0.00700
Br1426     Br  0.85652791  0.42960413  0.59950855    -0.00600
C1427       C  0.73750823  0.76808425  0.73671821    -0.01800
C1428       C  0.77155012  0.79253884  0.73997679     0.07900
C1429       C  0.79445614  0.78775946  0.75743764    -0.01900
C1430       C  0.78257852  0.75964758  0.77186032    -0.01900
C1431       C  0.74790232  0.73590416  0.76882908     0.08000
C1432       C  0.72561167  0.74000819  0.75112819    -0.02100
Br1433     Br  0.67885659  0.70653745  0.74655102    -0.00600
Br1434     Br  0.70817025  0.77208136  0.71216395    -0.00700
Br1435     Br  0.81269618  0.75492228  0.79614864    -0.00700
Br1436     Br  0.84195380  0.82034099  0.76168732    -0.00600
C1437       C  0.85272778  0.02702938  0.73671480    -0.01800
C1438       C  0.83947291  0.98862908  0.74255694     0.07900
C1439       C  0.82361975  0.98281042  0.76161490    -0.01900
C1440       C  0.82288796  0.01499046  0.77524258    -0.01900
C1441       C  0.83616348  0.05358668  0.76945354     0.08000
C1442       C  0.85077863  0.05959286  0.75008154    -0.02100
Br1443     Br  0.86653664  0.11266651  0.74149112    -0.00600
Br1444     Br  0.87180422  0.03524637  0.71002442    -0.00700
Br1445     Br  0.80651123  0.00518700  0.80221441    -0.00700
Br1446     Br  0.80315860  0.93063417  0.76900569    -0.00600
C1447       C  0.87350731  0.77017148  0.62609448    -0.01800
C1448       C  0.83616143  0.77919591  0.63482533     0.07900
C1449       C  0.80158563  0.75609244  0.63066212    -0.01900
C1450       C  0.80440196  0.72349597  0.61750863    -0.01900
C1451       C  0.84193407  0.71400700  0.60922208     0.08000
C1452       C  0.87667277  0.73653207  0.61382291    -0.02100
Br1453     Br  0.92935869  0.71880725  0.60509059    -0.00600
Br1454     Br  0.92118086  0.80158136  0.63229975    -0.00700
Br1455     Br  0.75826998  0.68978761  0.61221929    -0.00700
Br1456     Br  0.75110589  0.76840794  0.64342732    -0.00600
C1457       C  0.50979955  0.98078133  0.49551592    -0.01800
C1458       C  0.47496056  0.00367938  0.49108248     0.07900
C1459       C  0.46726783  0.03911211  0.50204129    -0.01900
C1460       C  0.49403142  0.05146759  0.51718292    -0.01900
C1461       C  0.52907879  0.02880870  0.52140827     0.08000
C1462       C  0.53663669  0.99330937  0.51058117    -0.02100
Br1463     Br  0.58507373  0.96306818  0.51559161    -0.00600
Br1464     Br  0.52255568  0.93317384  0.48019906    -0.00700
Br1465     Br  0.48158285  0.09892836  0.53271562    -0.00700
Br1466     Br  0.41926540  0.07004070  0.49692912    -0.00600
C1467       C  0.71895930  0.08699435  0.50059327    -0.01800
C1468       C  0.72765249  0.10316068  0.51953568     0.07900
C1469       C  0.76685458  0.11790365  0.52354555    -0.01900
C1470       C  0.79661841  0.11742819  0.50865419    -0.01900
C1471       C  0.78789154  0.10140393  0.48972118     0.08000
C1472       C  0.74896945  0.08603671  0.48578065    -0.02100
Br1473     Br  0.73604168  0.06533245  0.45974708    -0.00600
Br1474     Br  0.66644418  0.06433014  0.49510978    -0.00700
Br1475     Br  0.84979697  0.13818540  0.51440423    -0.00700
Br1476     Br  0.77989031  0.14012440  0.54929700    -0.00600
C1477       C  0.71894635  0.20155476  0.62814306    -0.01800
C1478       C  0.69710895  0.20552630  0.61045267     0.07900
C1479       C  0.68722177  0.24393073  0.60347093    -0.01900
C1480       C  0.69310469  0.27765814  0.61566884    -0.01900
C1481       C  0.70695050  0.27247191  0.63520946     0.08000
C1482       C  0.72304978  0.23495197  0.64092275    -0.02100
Br1483     Br  0.74622566  0.22750897  0.66684705    -0.00600
Br1484     Br  0.74099235  0.15015248  0.63520913    -0.00700
Br1485     Br  0.68037074  0.33068220  0.60598360    -0.00700
Br1486     Br  0.66313618  0.24964281  0.57769297    -0.00600
C1487       C  0.71538229  0.92937695  0.63105808    -0.01800
C1488       C  0.72716011  0.94868927  0.64894178     0.07900
C1489       C  0.71629591  0.98926993  0.65189679    -0.01900
C1490       C  0.69516276  0.01041350  0.63701291    -0.01900
C1491       C  0.68579821  0.99189127  0.61856003     0.08000
C1492       C  0.69474094  0.95068608  0.61603906    -0.02100
Br1493     Br  0.68127486  0.92397474  0.59148186    -0.00600
Br1494     Br  0.72936538  0.87372910  0.62673921    -0.00700
Br1495     Br  0.67821112  0.06488847  0.64224264    -0.00700
Br1496     Br  0.73406206  0.01721046  0.67550046    -0.00600
C1497       C  0.27735169  0.73303230  0.74716962    -0.01800
C1498       C  0.24163005  0.74192849  0.73693806     0.07900
C1499       C  0.22015301  0.77748394  0.74166897    -0.01900
C1500       C  0.23354741  0.80320741  0.75701342    -0.01900
C1501       C  0.26880308  0.79387948  0.76760058     0.08000
C1502       C  0.29089982  0.75879621  0.76246388    -0.02100
Br1503     Br  0.33894002  0.74436926  0.77694784    -0.00600
Br1504     Br  0.30676179  0.68454080  0.74084089    -0.00700
Br1505     Br  0.20461518  0.85221960  0.76281940    -0.00700
Br1506     Br  0.17325571  0.79222723  0.72640430    -0.00600
C1507       C  0.12591954  0.52123256  0.74065468    -0.01800
C1508       C  0.16030229  0.54559815  0.73830623     0.07900
C1509       C  0.19524319  0.53788456  0.74942249    -0.01900
C1510       C  0.19546374  0.50654961  0.76332739    -0.01900
C1511       C  0.16059983  0.48273489  0.76617148     0.08000
C1512       C  0.12601485  0.48974516  0.75450242    -0.02100
Br1513     Br  0.07823287  0.45721643  0.75772350    -0.00600
Br1514     Br  0.07888425  0.53093665  0.72458858    -0.00700
Br1515     Br  0.24452083  0.49483785  0.77756796    -0.00700
Br1516     Br  0.24294408  0.57013044  0.74536894    -0.00600
C1517       C  0.97670588  0.76242630  0.71469166    -0.01800
C1518       C  0.97595155  0.79916396  0.70420774     0.07900
C1519       C  0.01023811  0.81030609  0.69318857    -0.01900
C1520       C  0.04496176  0.78573376  0.69299039    -0.01900
C1521       C  0.04506660  0.74776509  0.70247310     0.08000
C1522       C  0.01083578  0.73678337  0.71376026    -0.02100
Br1523     Br  0.00920408  0.68571256  0.72714356    -0.00600
Br1524     Br  0.93025141  0.74669789  0.73002972    -0.00700
Br1525     Br  0.09311498  0.80549067  0.68022035    -0.00700
Br1526     Br  0.00800935  0.85674687  0.67620041    -0.00600
C1527       C  0.06382440  0.55662165  0.63119849    -0.01800
C1528       C  0.06046612  0.58168696  0.64792051     0.07900
C1529       C  0.02293091  0.59733271  0.65356016    -0.01900
C1530       C  0.99011688  0.59414589  0.64066925    -0.01900
C1531       C  0.99488366  0.57376910  0.62230535     0.08000
C1532       C  0.03072406  0.55226956  0.61839777    -0.02100
Br1533     Br  0.03502299  0.51788095  0.59535071    -0.00600
Br1534     Br  0.11446696  0.53128558  0.62505237    -0.00700
Br1535     Br  0.94132003  0.62287587  0.64759994    -0.00700
Br1536     Br  0.01789593  0.62635972  0.67837312    -0.00600
C1537       C  0.52117089  0.49315075  0.52167178    -0.01800
C1538       C  0.47851620  0.49744351  0.52175639     0.07900
C1539       C  0.45972713  0.51599849  0.50534305    -0.01900
C1540       C  0.48323060  0.53070537  0.48957908    -0.01900
C1541       C  0.52514680  0.52432317  0.48915296     0.08000
C1542       C  0.54394713  0.50509662  0.50509393    -0.02100
Br1543     Br  0.60131430  0.49598830  0.50426131    -0.00600
Br1544     Br  0.54981602  0.47389833  0.54465837    -0.00700
Br1545     Br  0.45804457  0.56041374  0.46853824    -0.00700
Br1546     Br  0.40174707  0.51982103  0.50340761    -0.00600
C1547       C  0.29147863  0.40477529  0.49960230    -0.01800
C1548       C  0.28613298  0.42386354  0.51813828     0.07900
C1549       C  0.24886834  0.44203065  0.52274269    -0.01900
C1550       C  0.21772326  0.44252385  0.50865105    -0.01900
C1551       C  0.22293552  0.42325536  0.49023879     0.08000
C1552       C  0.25977934  0.40416818  0.48575455    -0.02100
Br1553     Br  0.26658674  0.37654573  0.46072605    -0.00600
Br1554     Br  0.34262992  0.38070583  0.49283346    -0.00700
Br1555     Br  0.16873459  0.47157276  0.51413040    -0.00700
Br1556     Br  0.23921106  0.46394833  0.54880446    -0.00600
C1557       C  0.48525663  0.21961388  0.56588204    -0.01800
C1558       C  0.52481115  0.22137012  0.55797374     0.07900
C1559       C  0.53684950  0.25679535  0.54810713    -0.01900
C1560       C  0.51092117  0.29058635  0.54732633    -0.01900
C1561       C  0.47266222  0.28986529  0.55658618     0.08000
C1562       C  0.45961881  0.25363586  0.56538816    -0.02100
Br1563     Br  0.40773551  0.25114425  0.57822021    -0.00600
Br1564     Br  0.46537043  0.17012593  0.57715461    -0.00700
Br1565     Br  0.52780347  0.33802333  0.53319673    -0.00700
Br1566     Br  0.58989663  0.26043588  0.53665273    -0.00600
C1567       C  0.48821420  0.43724850  0.64574479    -0.01800
C1568       C  0.49106595  0.45456562  0.62671098     0.07900
C1569       C  0.52552737  0.47740508  0.62166121    -0.01900
C1570       C  0.56040527  0.47418351  0.63320882     0.17300
C1571       C  0.55901994  0.45134021  0.65051780     0.08000
C1572       C  0.52226125  0.43709090  0.65788347    -0.02100
Br1573     Br  0.52045585  0.41312280  0.68381304    -0.00600
Br1574     Br  0.44081733  0.40868652  0.65471751    -0.00700
Br1575     Br  0.61061576  0.49723708  0.62448782    -0.00700
Br1576     Br  0.52531952  0.51211275  0.59886258    -0.00600
C1577       C  0.33739132  0.54743859  0.63122684    -0.01800
C1578       C  0.32023535  0.53932349  0.61237376     0.07900
C1579       C  0.28192191  0.55511733  0.60808831    -0.01900
C1580       C  0.25976837  0.57581199  0.62287214    -0.01900
C1581       C  0.27600031  0.58195745  0.64208105     0.08000
C1582       C  0.31546988  0.56861375  0.64596085    -0.02100
Br1583     Br  0.33816007  0.57609497  0.67201024    -0.00600
Br1584     Br  0.39120013  0.52891389  0.63697211    -0.00700
Br1585     Br  0.20639814  0.59497451  0.61678800    -0.00700
Br1586     Br  0.25874015  0.54653797  0.58229113    -0.00600
C1587       C  0.27715052  0.22871550  0.75670495    -0.01800
C1588       C  0.25856289  0.22758645  0.73798054     0.07900
C1589       C  0.23024824  0.25709243  0.73296374    -0.01900
C1590       C  0.22133815  0.28845544  0.74635462    -0.01900
C1591       C  0.23906076  0.28926518  0.76549562     0.08000
C1592       C  0.26759269  0.25933938  0.77046277    -0.02100
Br1593     Br  0.29461932  0.25974459  0.79577930    -0.00600
Br1594     Br  0.31648466  0.18816651  0.76320054    -0.00700
Br1595     Br  0.18806044  0.33241145  0.73731998    -0.00700
Br1596     Br  0.20475056  0.25501060  0.70727977    -0.00600
C1597       C  0.31298363  0.04289222  0.75598214    -0.01800
C1598       C  0.34454312  0.04673594  0.74209951     0.07900
C1599       C  0.37812902  0.02066888  0.74332290    -0.01900
C1600       C  0.38049791  0.99182869  0.75848276    -0.01900
C1601       C  0.34830889  0.98707237  0.77194129     0.08000
C1602       C  0.31437712  0.01268100  0.77049107    -0.02100
Br1603     Br  0.26816918  0.00554879  0.78759773    -0.00600
Br1604     Br  0.26817983  0.07999814  0.75587555    -0.00700
Br1605     Br  0.42912762  0.96045359  0.76126975    -0.00700
Br1606     Br  0.42017450  0.02219045  0.72353687    -0.00600
C1607       C  0.46906354  0.27370297  0.71186856    -0.01800
C1608       C  0.46769556  0.23745200  0.70073337     0.07900
C1609       C  0.50210568  0.22601450  0.68980412    -0.01900
C1610       C  0.53726647  0.25014950  0.69003503    -0.01900
C1611       C  0.53824450  0.28740299  0.70048429     0.08000
C1612       C  0.50408157  0.29834834  0.71187541    -0.02100
Br1613     Br  0.50404896  0.34775018  0.72706051    -0.00600
Br1614     Br  0.42258175  0.28994933  0.72710090    -0.00700
Br1615     Br  0.58476027  0.23057439  0.67646660    -0.00700
Br1616     Br  0.49993966  0.17921577  0.67269478    -0.00600
C1617       C  0.29726681  0.24907045  0.61555992    -0.01800
C1618       C  0.29753414  0.25689864  0.63619232     0.07900
C1619       C  0.28863310  0.29652717  0.64282508    -0.01900
C1620       C  0.29314944  0.32865666  0.62967631    -0.01900
C1621       C  0.30443072  0.32085647  0.60991969     0.08000
C1622       C  0.29967525  0.28137146  0.60231116    -0.02100
Br1623     Br  0.29632212  0.27086548  0.57416633    -0.00600
Br1624     Br  0.29363655  0.19489439  0.60492508    -0.00700
Br1625     Br  0.28395558  0.38320667  0.63882891    -0.00700
Br1626     Br  0.26985449  0.30776046  0.66940743    -0.00600
C1627       C  0.51679620  0.06352692  0.64382045    -0.01800
C1628       C  0.51028416  0.06314024  0.62328654     0.07900
C1629       C  0.47095100  0.06041186  0.61566816    -0.01900
C1630       C  0.43816610  0.06467194  0.62850962    -0.01900
C1631       C  0.44497751  0.07346059  0.64874760     0.08000
C1632       C  0.48409716  0.06844867  0.65673709    -0.02100
Br1633     Br  0.49459650  0.07067334  0.68488917    -0.00600
Br1634     Br  0.57077528  0.05857662  0.65403084    -0.00700
Br1635     Br  0.38412873  0.05959067  0.61807552    -0.00700
Br1636     Br  0.46165406  0.05569690  0.58749676    -0.00600
C1637       C  0.96542391  0.03152198  0.50357703    -0.01800
C1638       C  0.98215071  0.03415705  0.48441746     0.07900
C1639       C  0.02399563  0.02719800  0.48194695    -0.01900
C1640       C  0.04819207  0.01586123  0.49822148    -0.01900
C1641       C  0.03121800  0.01270933  0.51727650     0.08000
C1642       C  0.98994835  0.02163850  0.51987893    -0.02100
Br1643     Br  0.96720926  0.02215645  0.54613816    -0.00600
Br1644     Br  0.90913472  0.04324871  0.50790494    -0.00700
Br1645     Br  0.10408009  0.00229228  0.49415554    -0.00700
Br1646     Br  0.04828968  0.03145079  0.45608521    -0.00600
C1647       C  0.25480730  0.94327514  0.52028030    -0.01800
C1648       C  0.21615732  0.92806978  0.51553396     0.07900
C1649       C  0.20860731  0.91341613  0.49621608    -0.01900
C1650       C  0.23948359  0.91357919  0.48186701    -0.01900
C1651       C  0.27784014  0.92962999  0.48649574     0.08000
C1652       C  0.28518095  0.94492243  0.50571002    -0.02100
Br1653     Br  0.33607942  0.97049681  0.51179854    -0.00600
Br1654     Br  0.26706491  0.95996145  0.54706394    -0.00700
Br1655     Br  0.22946935  0.89029301  0.45604881    -0.00700
Br1656     Br  0.15539095  0.89479351  0.48904399    -0.00600
C1657       C  0.20441786  0.80185774  0.64180801    -0.01800
C1658       C  0.20510492  0.76203563  0.63478944     0.07900
C1659       C  0.20407883  0.75409600  0.61437433    -0.01900
C1660       C  0.19441900  0.78499493  0.60113094    -0.01900
C1661       C  0.18653345  0.82418346  0.60860999     0.08000
C1662       C  0.19591012  0.83316338  0.62865823    -0.02100
Br1663     Br  0.19635220  0.88793942  0.63854901    -0.00600
Br1664     Br  0.21096130  0.81294099  0.66974815    -0.00700
Br1665     Br  0.18909123  0.77150971  0.57337160    -0.00700
Br1666     Br  0.21474869  0.70034297  0.60491923    -0.00600
C1667       C  0.01122976  0.72991983  0.54294137    -0.01800
C1668       C  0.97078381  0.72993354  0.54948550     0.07900
C1669       C  0.95400777  0.76682186  0.55598919    -0.01900
C1670       C  0.97840991  0.80165400  0.55832557    -0.01900
C1671       C  0.01966770  0.80185734  0.55211021     0.08000
C1672       C  0.03506658  0.76550312  0.54366804    -0.02100
Br1673     Br  0.08863112  0.76286750  0.53245545    -0.00600
Br1674     Br  0.03361524  0.68106863  0.53180166    -0.00700
Br1675     Br  0.95381311  0.84729624  0.57171229    -0.00700
Br1676     Br  0.89713299  0.77027222  0.56225049    -0.00600
C1677       C  0.01255654  0.97409541  0.64070629    -0.01800
C1678       C  0.00013153  0.96703208  0.62082572     0.07900
C1679       C  0.95881639  0.97196015  0.61607634    -0.01900
C1680       C  0.93085282  0.97728986  0.63137054    -0.01900
C1681       C  0.94268047  0.97022963  0.65105853     0.08000
C1682       C  0.98373055  0.97405473  0.65597387    -0.02100
Br1683     Br  0.00086768  0.97850964  0.68322117    -0.00600
Br1684     Br  0.06841786  0.98417104  0.64738076    -0.00700
Br1685     Br  0.87560225  0.99141954  0.62545532    -0.00700
Br1686     Br  0.93781705  0.96680403  0.58951164    -0.00600
C1687       C  0.17308617  0.06420922  0.62327909    -0.01800
C1688       C  0.18849917  0.02997103  0.61333455     0.07900
C1689       C  0.22625125  0.01472344  0.61924365    -0.01900
C1690       C  0.24847069  0.03351400  0.63460584    -0.01900
C1691       C  0.23375102  0.06844425  0.64425443     0.08000
C1692       C  0.19577839  0.08362895  0.63847142    -0.02100
Br1693     Br  0.17548585  0.13183802  0.65090947    -0.00600
Br1694     Br  0.12034401  0.08370023  0.61643549    -0.00700
Br1695     Br  0.29869339  0.01006207  0.64303578    -0.00700
Br1696     Br  0.24765032  0.96755902  0.60609959    -0.00600
loop_ 
_geom_bond_atom_site_label_1 
_geom_bond_atom_site_label_2 
_geom_bond_distance 
_geom_bond_site_symmetry_2 
_ccdc_geom_bond_type 
Zn1           O5   1.923       .  S
Zn1           O6   1.989       .  S
Zn1          O10   1.981       .  S
Zn1          O17   1.986       .  S
Zn2           O5   1.956       .  S
Zn2           O7   2.040       .  S
Zn2           O9   2.128   1_565  S
Zn2          O13   2.103   1_565  S
Zn3           O5   1.944       .  S
Zn3           O8   2.020       .  S
Zn3          O11   2.039       .  S
Zn3          O14   2.087       .  S
Zn4           O5   1.912       .  S
Zn4          O12   2.024       .  S
Zn4          O15   1.973       .  S
Zn4          O16   2.006       .  S
O6           C18   1.270   1_565  A
O7           C19   1.280       .  A
O8           C20   1.271       .  A
O9           C18   1.288       .  A
O10          C20   1.270       .  A
O11          C19   1.280       .  A
O12          C21   1.272       .  A
O13          C22   1.286   1_545  A
O14          C21   1.281       .  A
O15          C22   1.270       .  A
O16          C23   1.270       .  A
O17          C23   1.269       .  A
C18        C1688   1.498       .  S
C19        C1648   1.487       .  S
C20        C1661   1.483       .  S
C21        C1671   1.529       .  S
C22        C1641   1.490   1_565  S
C23        C1678   1.488       .  S
Zn24         O28   1.909       .  S
Zn24         O29   1.995       .  S
Zn24         O33   1.981       .  S
Zn24         O40   1.998       .  S
Zn25         O28   1.948       .  S
Zn25         O30   2.047       .  S
Zn25         O32   2.127       .  S
Zn25         O36   2.081       .  S
Zn26         O28   1.931       .  S
Zn26         O31   1.997       .  S
Zn26         O34   2.013       .  S
Zn26         O37   2.076       .  S
Zn27         O28   1.908       .  S
Zn27         O35   2.030       .  S
Zn27         O38   1.953       .  S
Zn27         O39   1.974       .  S
O29          C41   1.270       .  A
O30          C42   1.280       .  A
O31          C43   1.270       .  A
O32          C41   1.287       .  A
O33          C43   1.273       .  A
O34          C42   1.277       .  A
O35          C44   1.273       .  A
O36          C45   1.284       .  A
O37          C44   1.279       .  A
O38          C45   1.269       .  A
O39          C46   1.264       .  A
O40          C46   1.273       .  A
C41        C1691   1.502       .  S
C42        C1598   1.489       .  S
C43        C1631   1.475       .  S
C44        C1608   1.502       .  S
C45        C1588   1.469       .  S
C46        C1618   1.487       .  S
Zn47         O51   1.920       .  S
Zn47         O52   1.982       .  S
Zn47         O56   1.987       .  S
Zn47         O63   2.022       .  S
Zn48         O51   1.919       .  S
Zn48         O53   1.979       .  S
Zn48         O55   1.966       .  S
Zn48         O59   1.982       .  S
Zn49         O51   1.954       .  S
Zn49         O54   2.071       .  S
Zn49         O57   2.121       .  S
Zn49         O60   2.033       .  S
Zn50         O51   1.943       .  S
Zn50         O58   2.006       .  S
Zn50         O61   1.999       .  S
Zn50         O62   2.088       .  S
O52          C64   1.272       .  A
O53          C65   1.267       .  A
O54          C66   1.282       .  A
O55          C64   1.267       .  A
O56          C66   1.271       .  A
O57          C65   1.285       .  A
O58          C67   1.277       .  A
O59          C68   1.273       .  A
O60          C67   1.280       .  A
O61          C68   1.268       .  A
O62          C69   1.280       .  A
O63          C69   1.272       .  A
C64        C1568   1.468       .  S
C65        C1578   1.498       .  S
C66        C1538   1.497       .  S
C67        C1548   1.476       .  S
C68        C1621   1.480       .  S
C69        C1561   1.504       .  S
Zn70         O74   1.912       .  S
Zn70         O75   1.986       .  S
Zn70         O79   2.021       .  S
Zn70         O86   1.971       .  S
Zn71         O74   1.964       .  S
Zn71         O76   2.057       .  S
Zn71         O78   2.008       .  S
Zn71         O82   2.087       .  S
Zn72         O74   1.948       .  S
Zn72         O77   2.089       .  S
Zn72         O80   1.994       .  S
Zn72         O83   2.050       .  S
Zn73         O74   1.936       .  S
Zn73         O81   2.001       .  S
Zn73         O84   2.019       .  S
Zn73         O85   2.002       .  S
O75          C87   1.271       .  A
O76          C88   1.283       .  A
O77          C89   1.280       .  A
O78          C87   1.271       .  A
O79          C89   1.273       .  A
O80          C88   1.273       .  A
O81          C90   1.274       .  A
O82          C91   1.282       .  A
O83          C90   1.280       .  A
O84          C91   1.274       .  A
O85          C92   1.270       .  A
O86          C92   1.270       .  A
C87        C1658   1.462       .  S
C88        C1498   1.481       .  S
C89        C1521   1.508       .  S
C90        C1508   1.472       .  S
C91        C1581   1.499       .  S
C92        C1528   1.457       .  S
Zn93         O97   1.959       .  S
Zn93         O98   2.073       .  S
Zn93        O102   1.984       .  S
Zn93        O109   2.095       .  S
Zn94         O97   1.941       .  S
Zn94         O99   2.088       .  S
Zn94        O101   1.999       .  S
Zn94        O105   2.060       .  S
Zn95         O97   1.919       .  S
Zn95        O100   1.994       .  S
Zn95        O103   2.026       .  S
Zn95        O106   1.998       .  S
Zn96         O97   1.933       .  S
Zn96        O104   2.011       .  S
Zn96        O107   2.017       .  S
Zn96        O108   2.031       .  S
O98         C110   1.284       .  A
O99         C111   1.282       .  A
O100        C112   1.273       .  A
O101        C110   1.273       .  A
O102        C112   1.269       .  A
O103        C111   1.273       .  A
O104        C113   1.271       .  A
O105        C114   1.283       .  A
O106        C113   1.273       .  A
O107        C114   1.278       .  A
O108        C115   1.276       .  A
O109        C115   1.283       .  A
C110       C1461   1.488       .  S
C111       C1558   1.506       .  S
C112       C1628   1.459       .  S
C113       C1478   1.464       .  S
C114       C1468   1.489       .  S
C115       C1491   1.507   1_545  S
Zn116       O120   1.958       .  S
Zn116       O121   2.132       .  S
Zn116       O125   2.016       .  S
Zn116       O132   2.089       .  S
Zn117       O120   1.909       .  S
Zn117       O122   1.942       .  S
Zn117       O124   1.976       .  S
Zn117       O128   1.954       .  S
Zn118       O120   1.963       .  S
Zn118       O123   2.021       .  S
Zn118       O126   2.029       .  S
Zn118       O129   2.095       .  S
Zn119       O120   1.918       .  S
Zn119       O127   2.010       .  S
Zn119       O130   1.964       .  S
Zn119       O131   1.964       .  S
O121        C133   1.286       .  A
O122        C134   1.266       .  A
O123        C135   1.280       .  A
O124        C133   1.266       .  A
O125        C135   1.278       .  A
O126        C134   1.271       .  A
O127        C136   1.270       .  A
O128        C137   1.266       .  A
O129        C136   1.282       .  A
O130        C137   1.268       .  A
O131        C138   1.267       .  A
O132        C138   1.284       .  A
C133       C1488   1.500       .  S
C134       C1681   1.481       .  S
C135       C1438   1.467       .  S
C136       C1518   1.500       .  S
C137       C1448   1.441       .  S
C138       C1428   1.478       .  S
Zn139       O143   1.958       .  S
Zn139       O144   2.065       .  S
Zn139       O148   1.990       .  S
Zn139       O155   2.015       .  S
Zn140       O143   1.937       .  S
Zn140       O145   2.001       .  S
Zn140       O147   2.040       .  S
Zn140       O151   1.960       .  S
Zn141       O143   1.904       .  S
Zn141       O146   1.936       .  S
Zn141       O149   1.957       .  S
Zn141       O152   1.942       .  S
Zn142       O143   1.964       .  S
Zn142       O150   2.150       .  S
Zn142       O153   2.063       .  S
Zn142       O154   2.071       .  S
O144        C156   1.276       .  A
O145        C157   1.269       .  A
O146        C158   1.266       .  A
O147        C156   1.273       .  A
O148        C158   1.271       .  A
O149        C157   1.262       .  A
O150        C159   1.287       .  A
O151        C160   1.272       .  A
O152        C159   1.264       .  A
O153        C160   1.284       .  A
O154        C161   1.282       .  A
O155        C161   1.276       .  A
C156       C1668   1.510       .  S
C157       C1531   1.471       .  S
C158       C1451   1.439       .  S
C159       C1418   1.506       .  S
C160       C1401   1.463       .  S
C161       C1408   1.487       .  S
Zn162       O166   1.905       .  S
Zn162       O167   1.981       .  S
Zn162       O171   1.983       .  S
Zn162       O178   2.014       .  S
Zn163       O166   1.967       .  S
Zn163       O168   2.118       .  S
Zn163       O170   2.011       .  S
Zn163       O174   2.076       .  S
Zn164       O166   1.906       .  S
Zn164       O169   1.971       .  S
Zn164       O172   1.983       .  S
Zn164       O175   1.991       .  S
Zn165       O166   1.940       .  S
Zn165       O173   2.052       .  S
Zn165       O176   1.984       .  S
Zn165       O177   2.093       .  S
O167        C179   1.272       .  A
O168        C180   1.285       .  A
O169        C181   1.265       .  A
O170        C179   1.271       .  A
O171        C181   1.272       .  A
O172        C180   1.270       .  A
O173        C182   1.280       .  A
O174        C183   1.287       .  A
O175        C182   1.273       .  A
O176        C183   1.272       .  A
O177        C184   1.282       .  A
O178        C184   1.272       .  A
C179       C1481   1.472       .  S
C180       C1421   1.513       .  S
C181       C1571   1.448       .  S
C182       C1388   1.474       .  S
C183       C1378   1.492       .  S
C184       C1611   1.509       .  S
Zn185       O189   1.949       .  S
Zn185       O190   2.039       .  S
Zn185       O194   2.129       .  S
Zn185       O201   2.075       .  S
Zn186       O189   1.944       .  S
Zn186       O191   2.000       .  S
Zn186       O193   2.017       .  S
Zn186       O197   2.073       .  S
Zn187       O189   1.909       .  S
Zn187       O192   1.973       .  S
Zn187       O195   1.969       .  S
Zn187       O198   1.965       .  S
Zn188       O189   1.933       .  S
Zn188       O196   1.990       .  S
Zn188       O199   2.040       .  S
Zn188       O200   1.991       .  S
O190        C202   1.279       .  A
O191        C203   1.269       .  A
O192        C204   1.267       .  A
O193        C202   1.278       .  A
O194        C204   1.286       .  A
O195        C203   1.270       .  A
O196        C205   1.272       .  A
O197        C206   1.279       .  A
O198        C205   1.267       .  A
O199        C206   1.273       .  A
O200        C207   1.274       .  A
O201        C207   1.284       .  A
C202       C1328   1.487       .  S
C203       C1348   1.473       .  S
C204       C1371   1.498       .  S
C205       C1358   1.468       .  S
C206       C1341   1.500       .  S
C207       C1318   1.480       .  S
Zn208       O212   1.940       .  S
Zn208       O213   2.138       .  S
Zn208       O217   2.100       .  S
Zn208       O224   2.043       .  S
Zn209       O212   1.893       .  S
Zn209       O214   1.968       .  S
Zn209       O216   1.958       .  S
Zn209       O220   1.962       .  S
Zn210       O212   1.909       .  S
Zn210       O215   1.994       .  S
Zn210       O218   2.008       .  S
Zn210       O221   2.028       .  S
Zn211       O212   1.938       .  S
Zn211       O219   2.078       .  S
Zn211       O222   2.006       .  S
Zn211       O223   2.016       .  S
O213        C225   1.288       .  A
O214        C226   1.264       .  A
O215        C227   1.273       .  A
O216        C225   1.267       .  A
O217        C227   1.287       .  A
O218        C226   1.273       .  A
O219        C228   1.280       .  A
O220        C229   1.269       .  A
O221        C228   1.274       .  A
O222        C229   1.272       .  A
O223        C230   1.278       .  A
O224        C230   1.280       .  A
C225       C1368   1.504       .  S
C226       C1301   1.481       .  S
C227       C1268   1.511       .  S
C228       C1291   1.511       .  S
C229       C1308   1.453       .  S
C230       C1278   1.483       .  S
Zn231       O235   1.916       .  S
Zn231       O236   2.010       .  S
Zn231       O240   1.980       .  S
Zn231       O247   1.967       .  S
Zn232       O235   1.953       .  S
Zn232       O237   1.984       .  S
Zn232       O239   2.083       .  S
Zn232       O243   2.039       .  S
Zn233       O235   1.916       .  S
Zn233       O238   1.986       .  S
Zn233       O241   1.988       .  S
Zn233       O244   1.989       .  S
Zn234       O235   1.942       .  S
Zn234       O242   2.119   1_565  S
Zn234       O245   2.040       .  S
Zn234       O246   2.091   1_565  S
O236        C248   1.270       .  A
O237        C249   1.269       .  A
O238        C250   1.268       .  A
O239        C248   1.280       .  A
O240        C250   1.270       .  A
O241        C249   1.272       .  A
O242        C251   1.287       .  A
O243        C252   1.280       .  A
O244        C251   1.270   1_565  A
O245        C252   1.279       .  A
O246        C253   1.285       .  A
O247        C253   1.271   1_565  A
C248       C1261   1.502       .  S
C249       C1361   1.460       .  S
C250       C1241   1.482       .  S
C251       C1248   1.496       .  S
C252       C1228   1.495       .  S
C253       C1218   1.479       .  S
Zn254       O258   1.922       .  S
Zn254       O259   2.076       .  S
Zn254       O263   2.004       .  S
Zn254       O270   2.046       .  S
Zn255       O258   1.879       .  S
Zn255       O260   1.970       .  S
Zn255       O262   2.019       .  S
Zn255       O266   1.945       .  S
Zn256       O258   1.938       .  S
Zn256       O261   2.050       .  S
Zn256       O264   2.016       .  S
Zn256       O267   2.062       .  S
Zn257       O258   1.926       .  S
Zn257       O265   2.045       .  S
Zn257       O268   2.021       .  S
Zn257       O269   2.004       .  S
O259        C271   1.280       .  A
O260        C272   1.264       .  A
O261        C273   1.281       .  A
O262        C271   1.273       .  A
O263        C273   1.274       .  A
O264        C272   1.274       .  A
O265        C274   1.279       .  A
O266        C275   1.267       .  A
O267        C274   1.280       .  A
O268        C275   1.270       .  A
O269        C276   1.278       .  A
O270        C276   1.282       .  A
C271       C1201   1.504       .  S
C272       C1311   1.466       .  S
C273       C1178   1.476       .  S
C274       C1251   1.495       .  S
C275       C1208   1.461       .  S
C276       C1191   1.471       .  S
Zn277       O281   1.963       .  S
Zn277       O282   2.107       .  S
Zn277       O286   2.010       .  S
Zn277       O293   2.078       .  S
Zn278       O281   1.890       .  S
Zn278       O283   1.971       .  S
Zn278       O285   1.994       .  S
Zn278       O289   1.975       .  S
Zn279       O281   1.894       .  S
Zn279       O284   1.969       .  S
Zn279       O287   1.987       .  S
Zn279       O290   2.015       .  S
Zn280       O281   1.927       .  S
Zn280       O288   2.095       .  S
Zn280       O291   2.054       .  S
Zn280       O292   1.995       .  S
O282        C294   1.283       .  A
O283        C295   1.266       .  A
O284        C296   1.273       .  A
O285        C294   1.270       .  A
O286        C296   1.273       .  A
O287        C295   1.271       .  A
O288        C297   1.282       .  A
O289        C298   1.273       .  A
O290        C297   1.273       .  A
O291        C298   1.282       .  A
O292        C299   1.275       .  A
O293        C299   1.286       .  A
C294       C1168   1.515       .  S
C295       C1238   1.451       .  S
C296       C1161   1.463       .  S
C297       C1338   1.514       .  S
C298       C1148   1.476       .  S
C299       C1138   1.495       .  S
Zn300       O304   1.942       .  S
Zn300       O305   2.146       .  S
Zn300       O309   2.067       .  S
Zn300       O316   2.043       .  S
Zn301       O304   1.892       .  S
Zn301       O306   1.969       .  S
Zn301       O308   1.945       .  S
Zn301       O312   1.941       .  S
Zn302       O304   1.919       .  S
Zn302       O307   1.971       .  S
Zn302       O310   2.013       .  S
Zn302       O313   2.045       .  S
Zn303       O304   1.946       .  S
Zn303       O311   2.068       .  S
Zn303       O314   1.990       .  S
Zn303       O315   2.012       .  S
O305        C317   1.288       .  A
O306        C318   1.264       .  A
O307        C319   1.273       .  A
O308        C317   1.265       .  A
O309        C319   1.285       .  A
O310        C318   1.273       .  A
O311        C320   1.278       .  A
O312        C321   1.268       .  A
O313        C320   1.276       .  A
O314        C321   1.270       .  A
O315        C322   1.276       .  A
O316        C322   1.279       .  A
C317       C1171   1.512       .  S
C318       C1211   1.478       .  S
C319       C1108   1.476       .  S
C320       C1288   1.513       .  S
C321       C1128   1.440       .  S
C322       C1121   1.484       .  S
Zn323       O327   1.953       .  S
Zn323       O328   2.080       .  S
Zn323       O332   2.143       .  S
Zn323       O339   2.040       .  S
Zn324       O327   1.920       .  S
Zn324       O329   1.962       .  S
Zn324       O331   1.964       .  S
Zn324       O335   2.009       .  S
Zn325       O327   1.919       .  S
Zn325       O330   1.990       .  S
Zn325       O333   1.970       .  S
Zn325       O336   1.969       .  S
Zn326       O327   1.948       .  S
Zn326       O334   2.000       .  S
Zn326       O337   2.086       .  S
Zn326       O338   2.004       .  S
O328        C340   1.283       .  A
O329        C341   1.268       .  A
O330        C342   1.268       .  A
O331        C340   1.267       .  A
O332        C342   1.289       .  A
O333        C341   1.268       .  A
O334        C343   1.269       .  A
O335        C344   1.270       .  A
O336        C343   1.269       .  A
O337        C344   1.280       .  A
O338        C345   1.277       .  A
O339        C345   1.281       .  A
C340       C1078   1.478       .  S
C341       C1131   1.441       .  S
C342       C1101   1.521       .  S
C343       C1298   1.475       .  S
C344       C1198   1.493       .  S
C345       C1088   1.487       .  S
Zn346       O350   1.921       .  S
Zn346       O351   2.021       .  S
Zn346       O355   1.965       .  S
Zn346       O362   1.988       .  S
Zn347       O350   1.944       .  S
Zn347       O352   2.001       .  S
Zn347       O354   2.088       .  S
Zn347       O358   2.010       .  S
Zn348       O350   1.919       .  S
Zn348       O353   2.005       .  S
Zn348       O356   1.983       .  S
Zn348       O359   2.002       .  S
Zn349       O350   1.951       .  S
Zn349       O357   2.146       .  S
Zn349       O360   2.046       .  S
Zn349       O361   2.086       .  S
O351        C363   1.271       .  A
O352        C364   1.271       .  A
O353        C365   1.270       .  A
O354        C363   1.279       .  A
O355        C365   1.269       .  A
O356        C364   1.274       .  A
O357        C366   1.289       .  A
O358        C367   1.277       .  A
O359        C366   1.270       .  A
O360        C367   1.281       .  A
O361        C368   1.285       .  A
O362        C368   1.273       .  A
C363       C1258   1.496       .  S
C364       C1158   1.468       .  S
C365       C1351   1.479       .  S
C366       C1098   1.518       .  S
C367       C1068   1.474       .  S
C368       C1061   1.486       .  S
Zn369       O373   1.938       .  S
Zn369       O374   2.004       .  S
Zn369       O378   1.984       .  S
Zn369       O385   2.023       .  S
Zn370       O373   1.955       .  S
Zn370       O375   2.105       .  S
Zn370       O377   2.047       .  S
Zn370       O381   1.987       .  S
Zn371       O373   1.915       .  S
Zn371       O376   1.964       .  S
Zn371       O379   2.012       .  S
Zn371       O382   1.977       .  S
Zn372       O373   1.975       .  S
Zn372       O380   1.998       .  S
Zn372       O383   2.066       .  S
Zn372       O384   2.112       .  S
O374        C386   1.276       .  A
O375        C387   1.281       .  A
O376        C388   1.269       .  A
O377        C386   1.281       .  A
O378        C388   1.269       .  A
O379        C387   1.270       .  A
O380        C389   1.269       .  A
O381        C390   1.272       .  A
O382        C389   1.270       .  A
O383        C390   1.284       .  A
O384        C391   1.284       .  A
O385        C391   1.273       .  A
C386       C1601   1.489       .  S
C387       C1028   1.520       .  S
C388       C1021   1.463       .  S
C389       C1038   1.454       .  S
C390       C1501   1.484       .  S
C391       C1051   1.511       .  S
Zn392       O396   1.920       .  S
Zn392       O397   1.960       .  S
Zn392       O401   1.983       .  S
Zn392       O408   1.969       .  S
Zn393       O396   1.931       .  S
Zn393       O398   1.981       .  S
Zn393       O400   1.989       .  S
Zn393       O404   2.026       .  S
Zn394       O396   1.959       .  S
Zn394       O399   2.140       .  S
Zn394       O402   2.088       .  S
Zn394       O405   2.035       .  S
Zn395       O396   1.960       .  S
Zn395       O403   2.030       .  S
Zn395       O406   2.119       .  S
Zn395       O407   2.018       .  S
O397        C409   1.266       .  A
O398        C410   1.271       .  A
O399        C411   1.288       .  A
O400        C409   1.271       .  A
O401        C411   1.267       .  A
O402        C410   1.285       .  A
O403        C412   1.280       .  A
O404        C413   1.273       .  A
O405        C412   1.279       .  A
O406        C413   1.284       .  A
O407        C414   1.272       .  A
O408        C414   1.270       .  A
C409        C998   1.464       .  S
C410       C1221   1.487       .  S
C411       C1048   1.503   1_545  S
C412       C1118   1.479       .  S
C413        C988   1.506       .  S
C414       C1011   1.480       .  S
Zn415       O419   1.955       .  S
Zn415       O420   2.098       .  S
Zn415       O424   2.055       .  S
Zn415       O431   2.154       .  S
Zn416       O419   1.916       .  S
Zn416       O421   2.037       .  S
Zn416       O423   1.961       .  S
Zn416       O427   1.975       .  S
Zn417       O419   1.927       .  S
Zn417       O422   1.999       .  S
Zn417       O425   2.082       .  S
Zn417       O428   1.979       .  S
Zn418       O419   1.918       .  S
Zn418       O426   1.999       .  S
Zn418       O429   1.996       .  S
Zn418       O430   1.996       .  S
O420        C432   1.287       .  A
O421        C433   1.273       .  A
O422        C434   1.275       .  A
O423        C432   1.270       .  A
O424        C434   1.281       .  A
O425        C433   1.280       .  A
O426        C435   1.274       .  A
O427        C436   1.268       .  A
O428        C435   1.267       .  A
O429        C436   1.270       .  A
O430        C437   1.271       .  A
O431        C437   1.291       .  A
C432       C1431   1.479       .  S
C433       C1031   1.503       .  S
C434       C1391   1.488       .  S
C435        C958   1.472       .  S
C436        C968   1.485       .  S
C437        C978   1.512       .  S
Zn438       O442   1.939       .  S
Zn438       O443   2.027       .  S
Zn438       O447   2.144       .  S
Zn438       O454   2.098       .  S
Zn439       O442   1.945       .  S
Zn439       O444   1.986       .  S
Zn439       O446   2.029       .  S
Zn439       O450   2.104       .  S
Zn440       O442   1.917       .  S
Zn440       O445   2.011       .  S
Zn440       O448   1.994       .  S
Zn440       O451   2.011       .  S
Zn441       O442   1.886       .  S
Zn441       O449   1.973       .  S
Zn441       O452   2.030       .  S
Zn441       O453   1.968       .  S
O443        C455   1.279       .  A
O444        C456   1.270       .  A
O445        C457   1.272       .  A
O446        C455   1.281       .  A
O447        C457   1.290       .  A
O448        C456   1.274       .  A
O449        C458   1.267       .  A
O450        C459   1.282       .  A
O451        C458   1.274       .  A
O452        C459   1.271       .  A
O453        C460   1.270       .  A
O454        C460   1.286       .  A
C455       C1281   1.474       .  S
C456        C938   1.460       .  S
C457        C981   1.506       .  S
C458        C948   1.462   1_655  S
C459        C991   1.510       .  S
C460       C1058   1.484       .  S
Zn461       O465   1.929       .  S
Zn461       O466   1.976       .  S
Zn461       O470   2.010       .  S
Zn461       O477   1.977       .  S
Zn462       O465   1.944       .  S
Zn462       O467   2.026       .  S
Zn462       O469   2.075       .  S
Zn462       O473   2.120       .  S
Zn463       O465   1.948       .  S
Zn463       O468   2.074       .  S
Zn463       O471   2.003       .  S
Zn463       O474   1.989       .  S
Zn464       O465   1.925       .  S
Zn464       O472   1.993       .  S
Zn464       O475   1.988       .  S
Zn464       O476   1.981       .  S
O466        C478   1.270       .  A
O467        C479   1.278       .  A
O468        C480   1.278       .  A
O469        C478   1.282       .  A
O470        C480   1.270       .  A
O471        C479   1.276       .  A
O472        C481   1.272       .  A
O473        C482   1.287       .  A
O474        C481   1.268       .  A
O475        C482   1.271       .  A
O476        C483   1.268       .  A
O477        C483   1.270       .  A
C478       C1381   1.496       .  S
C479       C1441   1.474       .  S
C480        C921   1.506       .  S
C481       C1001   1.468       .  S
C482        C931   1.500       .  S
C483        C941   1.470       .  S
Zn484       O488   1.955       .  S
Zn484       O489   2.036   1_565  S
Zn484       O493   1.969       .  S
Zn484       O500   2.073   1_565  S
Zn485       O488   1.940       .  S
Zn485       O490   2.096       .  S
Zn485       O492   1.988       .  S
Zn485       O496   2.060       .  S
Zn486       O488   1.916       .  S
Zn486       O491   1.986       .  S
Zn486       O494   2.040       .  S
Zn486       O497   1.998       .  S
Zn487       O488   1.921       .  S
Zn487       O495   1.979       .  S
Zn487       O498   2.010       .  S
Zn487       O499   2.034       .  S
O489        C501   1.280   1_545  A
O490        C502   1.282       .  A
O491        C503   1.272       .  A
O492        C501   1.272       .  A
O493        C503   1.266       .  A
O494        C502   1.275       .  A
O495        C504   1.268       .  A
O496        C505   1.282       .  A
O497        C504   1.273       .  A
O498        C505   1.277       .  A
O499        C506   1.274   1_565  A
O500        C506   1.279       .  A
C501       C1111   1.469   1_565  S
C502        C908   1.506       .  S
C503       C1018   1.446       .  S
C504        C971   1.453       .  S
C505       C1231   1.494       .  S
C506        C928   1.495       .  S
Zn507       O511   1.935       .  S
Zn507       O512   1.990       .  S
Zn507       O516   2.039       .  S
Zn507       O523   2.091       .  S
Zn508       O511   1.966       .  S
Zn508       O513   2.107       .  S
Zn508       O515   2.063       .  S
Zn508       O519   2.010       .  S
Zn509       O511   1.930       .  S
Zn509       O514   2.005       .  S
Zn509       O517   2.031       .  S
Zn509       O520   2.006       .  S
Zn510       O511   1.905       .  S
Zn510       O518   1.950       .  S
Zn510       O521   1.962       .  S
Zn510       O522   2.008       .  S
O512        C524   1.275       .  A
O513        C525   1.283       .  A
O514        C526   1.275       .  A
O515        C524   1.285       .  A
O516        C526   1.278       .  A
O517        C525   1.275       .  A
O518        C527   1.267       .  A
O519        C528   1.271       .  A
O520        C527   1.272       .  A
O521        C528   1.269       .  A
O522        C529   1.270       .  A
O523        C529   1.279       .  A
C524       C1591   1.490       .  S
C525        C898   1.519       .  S
C526       C1511   1.481       .  S
C527        C951   1.457       .  S
C528       C1008   1.457       .  S
C529        C918   1.501       .  S
Zn530       O534   1.925       .  S
Zn530       O535   1.998       .  S
Zn530       O539   2.018       .  S
Zn530       O546   1.998       .  S
Zn531       O534   1.953       .  S
Zn531       O536   2.018       .  S
Zn531       O538   2.059       .  S
Zn531       O542   2.102       .  S
Zn532       O534   1.970       .  S
Zn532       O537   2.106       .  S
Zn532       O540   2.070       .  S
Zn532       O543   1.993       .  S
Zn533       O534   1.914       .  S
Zn533       O541   1.966       .  S
Zn533       O544   2.023       .  S
Zn533       O545   1.984       .  S
O535        C547   1.275       .  A
O536        C548   1.275       .  A
O537        C549   1.282       .  A
O538        C547   1.283       .  A
O539        C549   1.273       .  A
O540        C548   1.284       .  A
O541        C550   1.270       .  A
O542        C551   1.282       .  A
O543        C550   1.271       .  A
O544        C551   1.273       .  A
O545        C552   1.271       .  A
O546        C552   1.269       .  A
C547       C1071   1.489       .  S
C548       C1271   1.485       .  S
C549        C901   1.512       .  S
C550        C961   1.457       .  S
C551        C911   1.510       .  S
C552       C1041   1.458       .  S
Zn553       O557   1.881       .  S
Zn553       O558   2.014       .  S
Zn553       O562   1.977       .  S
Zn553       O569   1.986       .  S
Zn554       O557   1.918       .  S
Zn554       O559   2.059       .  S
Zn554       O561   2.086       .  S
Zn554       O565   1.990       .  S
Zn555       O557   1.906       .  S
Zn555       O560   1.975       .  S
Zn555       O563   1.985       .  S
Zn555       O566   2.007       .  S
Zn556       O557   1.919       .  S
Zn556       O564   2.077       .  S
Zn556       O567   2.037       .  S
Zn556       O568   2.002       .  S
O558        C570   1.272       .  A
O559        C571   1.283       .  A
O560        C572   1.267       .  A
O561        C570   1.281       .  A
O562        C572   1.273       .  A
O563        C571   1.274       .  A
O564        C573   1.281       .  A
O565        C574   1.273       .  A
O566        C573   1.274       .  A
O567        C574   1.282       .  A
O568        C575   1.271       .  A
O569        C575   1.271       .  A
C570        C861   1.507       .  S
C571       C1551   1.473       .  S
C572        C868   1.451       .  S
C573        C891   1.496       .  S
C574       C1398   1.486       .  S
C575        C878   1.461   1_455  S
Zn576       O580   1.959       .  S
Zn576       O581   2.084       .  S
Zn576       O585   2.064       .  S
Zn576       O592   1.989       .  S
Zn577       O580   1.922       .  S
Zn577       O582   1.987       .  S
Zn577       O584   2.009       .  S
Zn577       O588   1.984       .  S
Zn578       O580   1.942       .  S
Zn578       O583   1.999       .  S
Zn578       O586   2.056       .  S
Zn578       O589   2.088       .  S
Zn579       O580   1.925       .  S
Zn579       O587   2.036       .  S
Zn579       O590   2.001       .  S
Zn579       O591   1.994       .  S
O581        C593   1.280       .  A
O582        C594   1.273       .  A
O583        C595   1.273       .  A
O584        C593   1.273       .  A
O585        C595   1.282       .  A
O586        C594   1.282       .  A
O587        C596   1.274       .  A
O588        C597   1.268       .  A
O589        C596   1.280       .  A
O590        C597   1.273       .  A
O591        C598   1.274       .  A
O592        C598   1.271       .  A
C593        C888   1.500       .  S
C594       C1091   1.472       .  S
C595       C1141   1.497       .  S
C596        C828   1.516       .  S
C597        C851   1.456       .  S
C598        C838   1.458       .  S
Zn599       O603   1.933       .  S
Zn599       O604   1.985       .  S
Zn599       O608   1.994       .  S
Zn599       O615   1.983       .  S
Zn600       O603   1.958       .  S
Zn600       O605   2.057       .  S
Zn600       O607   2.091       .  S
Zn600       O611   2.132       .  S
Zn601       O603   1.958       .  S
Zn601       O606   2.096       .  S
Zn601       O609   2.024       .  S
Zn601       O612   2.009       .  S
Zn602       O603   1.932       .  S
Zn602       O610   1.992       .  S
Zn602       O613   1.983       .  S
Zn602       O614   1.987       .  S
O604        C616   1.270       .  A
O605        C617   1.282       .  A
O606        C618   1.280       .  A
O607        C616   1.285       .  A
O608        C618   1.269       .  A
O609        C617   1.279       .  A
O610        C619   1.271       .  A
O611        C620   1.288       .  A
O612        C619   1.271       .  A
O613        C620   1.270       .  A
O614        C621   1.269       .  A
O615        C621   1.271       .  A
C616       C1638   1.493       .  S
C617       C1471   1.486       .  S
C618        C858   1.499       .  S
C619        C798   1.474       .  S
C620        C821   1.507   1_545  S
C621        C808   1.472       .  S
Zn622       O626   1.942       .  S
Zn622       O627   2.103       .  S
Zn622       O631   2.012       .  S
Zn622       O638   2.054       .  S
Zn623       O626   1.911       .  S
Zn623       O628   1.972       .  S
Zn623       O630   2.021       .  S
Zn623       O634   1.992       .  S
Zn624       O626   1.954       .  S
Zn624       O629   2.054       .  S
Zn624       O632   1.983       .  S
Zn624       O635   2.086       .  S
Zn625       O626   1.923       .  S
Zn625       O633   2.026       .  S
Zn625       O636   1.983       .  S
Zn625       O637   1.987       .  S
O627        C639   1.282       .  A
O628        C640   1.271       .  A
O629        C641   1.282       .  A
O630        C639   1.273       .  A
O631        C641   1.276       .  A
O632        C640   1.269       .  A
O633        C642   1.273       .  A
O634        C643   1.272       .  A
O635        C642   1.281       .  A
O636        C643   1.268       .  A
O637        C644   1.274       .  A
O638        C644   1.282       .  A
C639        C831   1.506       .  S
C640        C778   1.445       .  S
C641       C1321   1.487       .  S
C642        C818   1.496       .  S
C643        C788   1.459       .  S
C644       C1188   1.480       .  S
Zn645       O649   1.972       .  S
Zn645       O650   1.992       .  S
Zn645       O654   2.070   1_565  S
Zn645       O661   2.101   1_565  S
Zn646       O649   1.931       .  S
Zn646       O651   2.056       .  S
Zn646       O653   1.995       .  S
Zn646       O657   2.003       .  S
Zn647       O649   1.948       .  S
Zn647       O652   2.015       .  S
Zn647       O655   2.109       .  S
Zn647       O658   2.053       .  S
Zn648       O649   1.930       .  S
Zn648       O656   2.020       .  S
Zn648       O659   1.992       .  S
Zn648       O660   2.035       .  S
O650        C662   1.269       .  A
O651        C663   1.276       .  A
O652        C664   1.276       .  A
O653        C662   1.273       .  A
O654        C664   1.285   1_545  A
O655        C663   1.283       .  A
O656        C665   1.278       .  A
O657        C666   1.273       .  A
O658        C665   1.281       .  A
O659        C666   1.270       .  A
O660        C667   1.276   1_565  A
O661        C667   1.283       .  A
C662        C791   1.456       .  S
C663        C758   1.515       .  S
C664       C1458   1.492   1_565  S
C665       C1651   1.486       .  S
C666        C841   1.461       .  S
C667        C771   1.507       .  S
Zn668       O672   1.922       .  S
Zn668       O673   1.975       .  S
Zn668       O677   1.996       .  S
Zn668       O684   2.031       .  S
Zn669       O672   1.936       .  S
Zn669       O674   2.120       .  S
Zn669       O676   2.076       .  S
Zn669       O680   2.026       .  S
Zn670       O672   1.912       .  S
Zn670       O675   1.958       .  S
Zn670       O678   1.996       .  S
Zn670       O681   1.981       .  S
Zn671       O672   1.946       .  S
Zn671       O679   1.992       .  S
Zn671       O682   2.021       .  S
Zn671       O683   2.080       .  S
O673        C685   1.272       .  A
O674        C686   1.286       .  A
O675        C687   1.265       .  A
O676        C685   1.283       .  A
O677        C687   1.273       .  A
O678        C686   1.270       .  A
O679        C688   1.270       .  A
O680        C689   1.278       .  A
O681        C688   1.272       .  A
O682        C689   1.278       .  A
O683        C690   1.279       .  A
O684        C690   1.273       .  A
C685       C1081   1.480       .  S
C686        C768   1.501       .  S
C687        C871   1.473       .  S
C688        C811   1.463       .  S
C689       C1151   1.491       .  S
C690        C751   1.517       .  S
Zn691       O695   1.981       .  S
Zn691       O696   2.070       .  S
Zn691       O700   2.132       .  S
Zn691       O707   2.019       .  S
Zn692       O695   1.960       .  S
Zn692       O697   2.079       .  S
Zn692       O699   2.013       .  S
Zn692       O703   2.126       .  S
Zn693       O695   1.934       .  S
Zn693       O698   2.008       .  S
Zn693       O701   2.002       .  S
Zn693       O704   1.981       .  S
Zn694       O695   1.925       .  S
Zn694       O702   1.968       .  S
Zn694       O705   2.037       .  S
Zn694       O706   1.978       .  S
O696        C708   1.287       .  A
O697        C709   1.282       .  A
O698        C710   1.270       .  A
O699        C708   1.278       .  A
O700        C710   1.285       .  A
O701        C709   1.274       .  A
O702        C711   1.270       .  A
O703        C712   1.284       .  A
O704        C711   1.271       .  A
O705        C712   1.272       .  A
O706        C713   1.272       .  A
O707        C713   1.271       .  A
C708       C1541   1.478       .  S
C709       C1411   1.499       .  S
C710        C738   1.518       .  S
C711        C781   1.462       .  S
C712        C761   1.511       .  S
C713        C848   1.466       .  S
Zn714       O718   1.958       .  S
Zn714       O719   2.108       .  S
Zn714       O723   2.048       .  S
Zn714       O730   2.014       .  S
Zn715       O718   1.915       .  S
Zn715       O720   1.984       .  S
Zn715       O722   2.012       .  S
Zn715       O726   1.973       .  S
Zn716       O718   1.944       .  S
Zn716       O721   2.008       .  S
Zn716       O724   2.004       .  S
Zn716       O727   2.041       .  S
Zn717       O718   1.975       .  S
Zn717       O725   2.088       .  S
Zn717       O728   2.007       .  S
Zn717       O729   2.054       .  S
O719        C731   1.282       .  A
O720        C732   1.271       .  A
O721        C733   1.276       .  A
O722        C731   1.271       .  A
O723        C733   1.280       .  A
O724        C732   1.270       .  A
O725        C734   1.281       .  A
O726        C735   1.270       .  A
O727        C734   1.276       .  A
O728        C735   1.270       .  A
O729        C736   1.283       .  A
O730        C736   1.276       .  A
C731        C748   1.509       .  S
C732        C881   1.460       .  S
C733       C1331   1.486       .  S
C734        C741   1.510       .  S
C735        C801   1.468       .  S
C736       C1181   1.480       .  S
C737        C738   1.415       .  A
C737        C742   1.427       .  A
C737       Br744   1.926       .  S
C738        C739   1.423       .  A
C739        C740   1.416       .  A
C739       Br746   1.928       .  S
C740        C741   1.410       .  A
C740       Br745   1.934       .  S
C741        C742   1.420       .  A
C742       Br743   1.929       .  S
C747        C748   1.415       .  A
C747        C752   1.424   1_655  A
C747       Br754   1.928       .  S
C748        C749   1.415   1_655  A
C749        C750   1.415       .  A
C749       Br756   1.938       .  S
C750        C751   1.424       .  A
C750       Br755   1.938       .  S
C751        C752   1.422       .  A
C752       Br753   1.930       .  S
C757        C758   1.417       .  A
C757        C762   1.425       .  A
C757       Br764   1.927       .  S
C758        C759   1.417       .  A
C759        C760   1.421       .  A
C759       Br766   1.928       .  S
C760        C761   1.414       .  A
C760       Br765   1.930       .  S
C761        C762   1.416       .  A
C762       Br763   1.927       .  S
C767        C768   1.408       .  A
C767        C772   1.417       .  A
C767       Br774   1.929       .  S
C768        C769   1.420       .  A
C769        C770   1.421       .  A
C769       Br776   1.929       .  S
C770        C771   1.409       .  A
C770       Br775   1.925       .  S
C771        C772   1.416       .  A
C772       Br773   1.919   1_545  S
C777        C778   1.402       .  A
C777        C782   1.395       .  A
C777       Br784   1.937       .  S
C778        C779   1.400       .  A
C779        C780   1.401       .  A
C779       Br786   1.927       .  S
C780        C781   1.415       .  A
C780       Br785   1.932       .  S
C781        C782   1.415       .  A
C782       Br783   1.934       .  S
C787        C788   1.410       .  A
C787        C792   1.403       .  A
C787       Br794   1.930       .  S
C788        C789   1.407       .  A
C789        C790   1.397       .  A
C789       Br796   1.927       .  S
C790        C791   1.403       .  A
C790       Br795   1.928       .  S
C791        C792   1.404       .  A
C792       Br793   1.925   1_565  S
C797        C798   1.414       .  A
C797        C802   1.399       .  A
C797       Br804   1.936       .  S
C798        C799   1.413       .  A
C799        C800   1.408       .  A
C799       Br806   1.929       .  S
C800        C801   1.409       .  A
C800       Br805   1.931       .  S
C801        C802   1.407       .  A
C802       Br803   1.932       .  S
C807        C808   1.412   1_455  A
C807        C812   1.402       .  A
C807       Br814   1.931       .  S
C808        C809   1.416       .  A
C809        C810   1.402   1_655  A
C809       Br816   1.938       .  S
C810        C811   1.410       .  A
C810       Br815   1.937       .  S
C811        C812   1.406       .  A
C812       Br813   1.932       .  S
C817        C818   1.415       .  A
C817        C822   1.420       .  A
C817       Br824   1.925       .  S
C818        C819   1.404       .  A
C819        C820   1.415       .  A
C819       Br826   1.929       .  S
C820        C821   1.424       .  A
C820       Br825   1.933   1_565  S
C821        C822   1.413       .  A
C822       Br823   1.928       .  S
C827        C828   1.423       .  A
C827        C832   1.416       .  A
C827       Br834   1.935       .  S
C828        C829   1.420       .  A
C829        C830   1.424       .  A
C829       Br836   1.930       .  S
C830        C831   1.415       .  A
C830       Br835   1.928       .  S
C831        C832   1.413       .  A
C832       Br833   1.936       .  S
C837        C838   1.408       .  A
C837        C842   1.398       .  A
C837       Br844   1.934       .  S
C838        C839   1.405       .  A
C839        C840   1.403       .  A
C839       Br846   1.927       .  S
C840        C841   1.409       .  A
C840       Br845   1.930       .  S
C841        C842   1.405       .  A
C842       Br843   1.920       .  S
C847        C848   1.407       .  A
C847        C852   1.399       .  A
C847       Br854   1.929       .  S
C848        C849   1.409       .  A
C849        C850   1.405       .  A
C849       Br856   1.922       .  S
C850        C851   1.404       .  A
C850       Br855   1.928       .  S
C851        C852   1.405       .  A
C852       Br853   1.931       .  S
C857        C858   1.414       .  A
C857        C862   1.411   1_655  A
C857       Br864   1.938       .  S
C858        C859   1.412       .  A
C859        C860   1.422   1_655  A
C859       Br866   1.927       .  S
C860        C861   1.420       .  A
C860       Br865   1.930       .  S
C861        C862   1.421       .  A
C862       Br863   1.939       .  S
C867        C868   1.400       .  A
C867        C872   1.402       .  A
C867       Br874   1.927       .  S
C868        C869   1.401       .  A
C869        C870   1.396       .  A
C869       Br876   1.935       .  S
C870        C871   1.420       .  A
C870       Br875   1.937       .  S
C871        C872   1.415       .  A
C872       Br873   1.929       .  S
C877        C878   1.408   1_455  A
C877        C882   1.404   1_455  A
C877       Br884   1.929       .  S
C878        C879   1.409       .  A
C879        C880   1.400       .  A
C879       Br886   1.933       .  S
C880        C881   1.405       .  A
C880       Br885   1.929       .  S
C881        C882   1.407       .  A
C882       Br883   1.928       .  S
C887        C888   1.419       .  A
C887        C892   1.420       .  A
C887       Br894   1.926       .  S
C888        C889   1.412       .  A
C889        C890   1.410       .  A
C889       Br896   1.933       .  S
C890        C891   1.415       .  A
C890       Br895   1.935       .  S
C891        C892   1.411       .  A
C892       Br893   1.928       .  S
C897        C898   1.422       .  A
C897        C902   1.413       .  A
C897       Br904   1.925       .  S
C898        C899   1.418       .  A
C899        C900   1.429       .  A
C899       Br906   1.928       .  S
C900        C901   1.420       .  A
C900       Br905   1.927       .  S
C901        C902   1.410       .  A
C902       Br903   1.936       .  S
C907        C908   1.412       .  A
C907        C912   1.416       .  A
C907       Br914   1.929       .  S
C908        C909   1.416       .  A
C909        C910   1.423       .  A
C909       Br916   1.928       .  S
C910        C911   1.416       .  A
C910       Br915   1.928       .  S
C911        C912   1.419       .  A
C912       Br913   1.935       .  S
C917        C918   1.415       .  A
C917        C922   1.412   1_455  A
C917       Br924   1.937       .  S
C918        C919   1.414       .  A
C919        C920   1.421   1_455  A
C919       Br926   1.927       .  S
C920        C921   1.417       .  A
C920       Br925   1.929       .  S
C921        C922   1.420       .  A
C922       Br923   1.939       .  S
C927        C928   1.405       .  A
C927        C932   1.414       .  A
C927       Br934   1.928       .  S
C928        C929   1.416       .  A
C929        C930   1.418       .  A
C929       Br936   1.927   1_545  S
C930        C931   1.411       .  A
C930       Br935   1.928       .  S
C931        C932   1.420       .  A
C932       Br933   1.931       .  S
C937        C938   1.408       .  A
C937        C942   1.401       .  A
C937       Br944   1.936       .  S
C938        C939   1.404       .  A
C939        C940   1.402       .  A
C939       Br946   1.929       .  S
C940        C941   1.413       .  A
C940       Br945   1.933       .  S
C941        C942   1.416       .  A
C942       Br943   1.938       .  S
C947        C948   1.411       .  A
C947        C952   1.393       .  A
C947       Br954   1.935       .  S
C948        C949   1.409       .  A
C949        C950   1.405       .  A
C949       Br956   1.930   1_455  S
C950        C951   1.409       .  A
C950       Br955   1.931       .  S
C951        C952   1.408       .  A
C952       Br953   1.936       .  S
C957        C958   1.413       .  A
C957        C962   1.400       .  A
C957       Br964   1.933       .  S
C958        C959   1.419       .  A
C959        C960   1.400       .  A
C959       Br966   1.937       .  S
C960        C961   1.404       .  A
C960       Br965   1.935       .  S
C961        C962   1.405       .  A
C962       Br963   1.929       .  S
C967        C968   1.418       .  A
C967        C972   1.400       .  A
C967       Br974   1.935       .  S
C968        C969   1.418       .  A
C969        C970   1.402       .  A
C969       Br976   1.932       .  S
C970        C971   1.402       .  A
C970       Br975   1.931       .  S
C971        C972   1.400       .  A
C972       Br973   1.926       .  S
C977        C978   1.416       .  A
C977        C982   1.426       .  A
C977       Br984   1.925       .  S
C978        C979   1.418       .  A
C979        C980   1.417       .  A
C979       Br986   1.931       .  S
C980        C981   1.412       .  A
C980       Br985   1.931       .  S
C981        C982   1.415       .  A
C982       Br983   1.926       .  S
C987        C988   1.412       .  A
C987        C992   1.417       .  A
C987       Br994   1.932       .  S
C988        C989   1.414       .  A
C989        C990   1.424       .  A
C989       Br996   1.923       .  S
C990        C991   1.416   1_455  A
C990       Br995   1.927   1_455  S
C991        C992   1.419   1_655  A
C992       Br993   1.933       .  S
C997        C998   1.410       .  A
C997       C1002   1.399   1_455  A
C997      Br1004   1.940       .  S
C998        C999   1.409   1_455  A
C999       C1000   1.403       .  A
C999      Br1006   1.933       .  S
C1000      C1001   1.409       .  A
C1000     Br1005   1.929       .  S
C1001      C1002   1.415       .  A
C1002     Br1003   1.936       .  S
C1007      C1008   1.402       .  A
C1007      C1012   1.402       .  A
C1007     Br1014   1.930       .  S
C1008      C1009   1.405       .  A
C1009      C1010   1.403       .  A
C1009     Br1016   1.932       .  S
C1010      C1011   1.417       .  A
C1010     Br1015   1.933       .  S
C1011      C1012   1.417       .  A
C1012     Br1013   1.934       .  S
C1017      C1018   1.400       .  A
C1017      C1022   1.403       .  A
C1017     Br1024   1.928   1_565  S
C1018      C1019   1.401       .  A
C1019      C1020   1.393       .  A
C1019     Br1026   1.933       .  S
C1020      C1021   1.413       .  A
C1020     Br1025   1.934       .  S
C1021      C1022   1.416       .  A
C1022     Br1023   1.931       .  S
C1027      C1028   1.427       .  A
C1027      C1032   1.415       .  A
C1027     Br1034   1.938       .  S
C1028      C1029   1.422       .  A
C1029      C1030   1.423       .  A
C1029     Br1036   1.929       .  S
C1030      C1031   1.413       .  A
C1030     Br1035   1.930       .  S
C1031      C1032   1.409       .  A
C1032     Br1033   1.932       .  S
C1037      C1038   1.406       .  A
C1037      C1042   1.400       .  A
C1037     Br1044   1.930       .  S
C1038      C1039   1.404       .  A
C1039      C1040   1.402       .  A
C1039     Br1046   1.929       .  S
C1040      C1041   1.407       .  A
C1040     Br1045   1.929       .  S
C1041      C1042   1.407       .  A
C1042     Br1043   1.930       .  S
C1047      C1048   1.407       .  A
C1047      C1052   1.417       .  A
C1047     Br1054   1.929       .  S
C1048      C1049   1.420       .  A
C1049      C1050   1.423       .  A
C1049     Br1056   1.929   1_565  S
C1050      C1051   1.411       .  A
C1050     Br1055   1.926       .  S
C1051      C1052   1.420       .  A
C1052     Br1053   1.923       .  S
C1057      C1058   1.416   1_554  A
C1057      C1062   1.412   1_655  A
C1057     Br1064   1.932       .  S
C1058      C1059   1.407       .  A
C1059      C1060   1.411   1_656  A
C1059     Br1066   1.929       .  S
C1060      C1061   1.416       .  A
C1060     Br1065   1.930       .  S
C1061      C1062   1.408       .  A
C1062     Br1063   1.930       .  S
C1067      C1068   1.407       .  A
C1067      C1072   1.409       .  A
C1067     Br1074   1.932       .  S
C1068      C1069   1.406   1_554  A
C1069      C1070   1.409       .  A
C1069     Br1076   1.931       .  S
C1070      C1071   1.420       .  A
C1070     Br1075   1.935       .  S
C1071      C1072   1.416   1_556  A
C1072     Br1073   1.931       .  S
C1077      C1078   1.409       .  A
C1077      C1082   1.407       .  A
C1077     Br1084   1.929       .  S
C1078      C1079   1.411       .  A
C1079      C1080   1.412       .  A
C1079     Br1086   1.930       .  S
C1080      C1081   1.412       .  A
C1080     Br1085   1.930       .  S
C1081      C1082   1.411       .  A
C1082     Br1083   1.931       .  S
C1087      C1088   1.418       .  A
C1087      C1092   1.407       .  A
C1087     Br1094   1.935       .  S
C1088      C1089   1.418       .  A
C1089      C1090   1.409       .  A
C1089     Br1096   1.933       .  S
C1090      C1091   1.405       .  A
C1090     Br1095   1.929       .  S
C1091      C1092   1.407       .  A
C1092     Br1093   1.933       .  S
C1097      C1098   1.424       .  A
C1097      C1102   1.420       .  A
C1097     Br1104   1.927       .  S
C1098      C1099   1.411       .  A
C1099      C1100   1.423       .  A
C1099     Br1106   1.930       .  S
C1100      C1101   1.429       .  A
C1100     Br1105   1.935       .  S
C1101      C1102   1.413       .  A
C1102     Br1103   1.932       .  S
C1107      C1108   1.413       .  A
C1107      C1112   1.404       .  A
C1107     Br1114   1.926       .  S
C1108      C1109   1.413       .  A
C1109      C1110   1.409   1_554  A
C1109     Br1116   1.932   1_554  S
C1110      C1111   1.409       .  A
C1110     Br1115   1.929       .  S
C1111      C1112   1.406   1_556  A
C1112     Br1113   1.934   1_545  S
C1117      C1118   1.410       .  A
C1117      C1122   1.409       .  A
C1117     Br1124   1.933       .  S
C1118      C1119   1.409   1_556  A
C1119      C1120   1.409       .  A
C1119     Br1126   1.931       .  S
C1120      C1121   1.414       .  A
C1120     Br1125   1.932       .  S
C1121      C1122   1.414   1_554  A
C1122     Br1123   1.933       .  S
C1127      C1128   1.406       .  A
C1127      C1132   1.390       .  A
C1127     Br1134   1.935       .  S
C1128      C1129   1.403       .  A
C1129      C1130   1.401       .  A
C1129     Br1136   1.928       .  S
C1130      C1131   1.406       .  A
C1130     Br1135   1.928       .  S
C1131      C1132   1.404       .  A
C1132     Br1133   1.936       .  S
C1137      C1138   1.417       .  A
C1137      C1142   1.412       .  A
C1137     Br1144   1.937       .  S
C1138      C1139   1.412       .  A
C1139      C1140   1.411       .  A
C1139     Br1146   1.930       .  S
C1140      C1141   1.420       .  A
C1140     Br1145   1.935       .  S
C1141      C1142   1.416       .  A
C1142     Br1143   1.934       .  S
C1147      C1148   1.407   1_545  A
C1147      C1152   1.408       .  A
C1147     Br1154   1.933   1_545  S
C1148      C1149   1.409   1_565  A
C1149      C1150   1.407       .  A
C1149     Br1156   1.936   1_545  S
C1150      C1151   1.419       .  A
C1150     Br1155   1.936       .  S
C1151      C1152   1.421       .  A
C1152     Br1153   1.935       .  S
C1157      C1158   1.413       .  A
C1157      C1162   1.400       .  A
C1157     Br1164   1.933       .  S
C1158      C1159   1.409       .  A
C1159      C1160   1.401       .  A
C1159     Br1166   1.932       .  S
C1160      C1161   1.407       .  A
C1160     Br1165   1.924       .  S
C1161      C1162   1.408       .  A
C1162     Br1163   1.935       .  S
C1167      C1168   1.423       .  A
C1167      C1172   1.426       .  A
C1167     Br1174   1.930       .  S
C1168      C1169   1.420   1_565  A
C1169      C1170   1.411       .  A
C1169     Br1176   1.940       .  S
C1170      C1171   1.420       .  A
C1170     Br1175   1.940       .  S
C1171      C1172   1.417   1_545  A
C1172     Br1173   1.929       .  S
C1177      C1178   1.406       .  A
C1177      C1182   1.410       .  A
C1177     Br1184   1.929       .  S
C1178      C1179   1.412       .  A
C1179      C1180   1.408       .  A
C1179     Br1186   1.932       .  S
C1180      C1181   1.408       .  A
C1180     Br1185   1.930       .  S
C1181      C1182   1.415       .  A
C1182     Br1183   1.931       .  S
C1187      C1188   1.413       .  A
C1187      C1192   1.409   1_565  A
C1187     Br1194   1.932       .  S
C1188      C1189   1.416   1_565  A
C1189      C1190   1.406       .  A
C1189     Br1196   1.933   1_545  S
C1190      C1191   1.405       .  A
C1190     Br1195   1.932       .  S
C1191      C1192   1.409       .  A
C1192     Br1193   1.930       .  S
C1197      C1198   1.409       .  A
C1197      C1202   1.414       .  A
C1197     Br1204   1.929       .  S
C1198      C1199   1.412       .  A
C1199      C1200   1.417       .  A
C1199     Br1206   1.929       .  S
C1200      C1201   1.418       .  A
C1200     Br1205   1.930       .  S
C1201      C1202   1.420       .  A
C1202     Br1203   1.933       .  S
C1207      C1208   1.404       .  A
C1207      C1212   1.401       .  A
C1207     Br1214   1.932       .  S
C1208      C1209   1.403       .  A
C1209      C1210   1.403       .  A
C1209     Br1216   1.927       .  S
C1210      C1211   1.412       .  A
C1210     Br1215   1.924       .  S
C1211      C1212   1.418       .  A
C1212     Br1213   1.935       .  S
C1217      C1218   1.414   1_565  A
C1217      C1222   1.410   1_664  A
C1217     Br1224   1.932       .  S
C1218      C1219   1.405       .  A
C1219      C1220   1.411   1_655  A
C1219     Br1226   1.929       .  S
C1220      C1221   1.418   1_554  A
C1220     Br1225   1.930       .  S
C1221      C1222   1.408       .  A
C1222     Br1223   1.929   1_545  S
C1227      C1228   1.415       .  A
C1227      C1232   1.411   1_554  A
C1227     Br1234   1.935   1_565  S
C1228      C1229   1.416       .  A
C1229      C1230   1.414       .  A
C1229     Br1236   1.934       .  S
C1230      C1231   1.415   1_554  A
C1230     Br1235   1.933       .  S
C1231      C1232   1.417       .  A
C1232     Br1233   1.936   1_565  S
C1237      C1238   1.400       .  A
C1237      C1242   1.399   1_455  A
C1237     Br1244   1.935       .  S
C1238      C1239   1.399       .  A
C1239      C1240   1.403       .  A
C1239     Br1246   1.931   1_565  S
C1240      C1241   1.420   1_455  A
C1240     Br1245   1.933   1_565  S
C1241      C1242   1.423       .  A
C1242     Br1243   1.937       .  S
C1247      C1248   1.410       .  A
C1247      C1252   1.417       .  A
C1247     Br1254   1.928       .  S
C1248      C1249   1.418       .  A
C1249      C1250   1.416       .  A
C1249     Br1256   1.930       .  S
C1250      C1251   1.409       .  A
C1250     Br1255   1.929       .  S
C1251      C1252   1.416       .  A
C1252     Br1253   1.931       .  S
C1257      C1258   1.412       .  A
C1257      C1262   1.418       .  A
C1257     Br1264   1.924       .  S
C1258      C1259   1.412       .  A
C1259      C1260   1.415       .  A
C1259     Br1266   1.933       .  S
C1260      C1261   1.420   1_455  A
C1260     Br1265   1.937       .  S
C1261      C1262   1.413   1_655  A
C1262     Br1263   1.927   1_455  S
C1267      C1268   1.422       .  A
C1267      C1272   1.414   1_554  A
C1267     Br1274   1.933       .  S
C1268      C1269   1.430       .  A
C1269      C1270   1.413       .  A
C1269     Br1276   1.936       .  S
C1270      C1271   1.402   1_554  A
C1270     Br1275   1.933       .  S
C1271      C1272   1.409       .  A
C1272     Br1273   1.931       .  S
C1277      C1278   1.416       .  A
C1277      C1282   1.409       .  A
C1277     Br1284   1.933       .  S
C1278      C1279   1.413       .  A
C1279      C1280   1.408   1_554  A
C1279     Br1286   1.932   1_554  S
C1280      C1281   1.408       .  A
C1280     Br1285   1.932       .  S
C1281      C1282   1.408   1_556  A
C1282     Br1283   1.931       .  S
C1287      C1288   1.419       .  A
C1287      C1292   1.419       .  A
C1287     Br1294   1.933       .  S
C1288      C1289   1.420       .  A
C1289      C1290   1.418       .  A
C1289     Br1296   1.935       .  S
C1290      C1291   1.419       .  A
C1290     Br1295   1.936       .  S
C1291      C1292   1.419       .  A
C1292     Br1293   1.934       .  S
C1297      C1298   1.409       .  A
C1297      C1302   1.405       .  A
C1297     Br1304   1.935       .  S
C1298      C1299   1.408       .  A
C1299      C1300   1.401       .  A
C1299     Br1306   1.932       .  S
C1300      C1301   1.413       .  A
C1300     Br1305   1.931       .  S
C1301      C1302   1.421       .  A
C1302     Br1303   1.937       .  S
C1307      C1308   1.404       .  A
C1307      C1312   1.405       .  A
C1307     Br1314   1.928       .  S
C1308      C1309   1.405       .  A
C1309      C1310   1.395       .  A
C1309     Br1316   1.938       .  S
C1310      C1311   1.416       .  A
C1310     Br1315   1.939       .  S
C1311      C1312   1.412       .  A
C1312     Br1313   1.931       .  S
C1317      C1318   1.408       .  A
C1317      C1322   1.410       .  A
C1317     Br1324   1.930       .  S
C1318      C1319   1.411       .  A
C1319      C1320   1.411       .  A
C1319     Br1326   1.930       .  S
C1320      C1321   1.414       .  A
C1320     Br1325   1.931       .  S
C1321      C1322   1.415       .  A
C1322     Br1323   1.932       .  S
C1327      C1328   1.416       .  A
C1327      C1332   1.409       .  A
C1327     Br1334   1.935       .  S
C1328      C1329   1.413       .  A
C1329      C1330   1.410       .  A
C1329     Br1336   1.932       .  S
C1330      C1331   1.414       .  A
C1330     Br1335   1.933       .  S
C1331      C1332   1.411       .  A
C1332     Br1333   1.933       .  S
C1337      C1338   1.424       .  A
C1337      C1342   1.414   1_455  A
C1337     Br1344   1.937       .  S
C1338      C1339   1.422       .  A
C1339      C1340   1.422   1_455  A
C1339     Br1346   1.930       .  S
C1340      C1341   1.411       .  A
C1340     Br1345   1.928       .  S
C1341      C1342   1.409       .  A
C1342     Br1343   1.931       .  S
C1347      C1348   1.410       .  A
C1347      C1352   1.405   1_655  A
C1347     Br1354   1.935   1_655  S
C1348      C1349   1.407       .  A
C1349      C1350   1.399       .  A
C1349     Br1356   1.935       .  S
C1350      C1351   1.417   1_655  A
C1350     Br1355   1.937       .  S
C1351      C1352   1.417       .  A
C1352     Br1353   1.933       .  S
C1357      C1358   1.416       .  A
C1357      C1362   1.401       .  A
C1357     Br1364   1.940       .  S
C1358      C1359   1.409       .  A
C1359      C1360   1.401       .  A
C1359     Br1366   1.931       .  S
C1360      C1361   1.405       .  A
C1360     Br1365   1.930       .  S
C1361      C1362   1.410       .  A
C1362     Br1363   1.936       .  S
C1367      C1368   1.417       .  A
C1367      C1372   1.423       .  A
C1367     Br1374   1.927       .  S
C1368      C1369   1.418       .  A
C1369      C1370   1.411       .  A
C1369     Br1376   1.936       .  S
C1370      C1371   1.412       .  A
C1370     Br1375   1.934       .  S
C1371      C1372   1.414       .  A
C1372     Br1373   1.926       .  S
C1377      C1378   1.422       .  A
C1377      C1382   1.412       .  A
C1377     Br1384   1.938       .  S
C1378      C1379   1.408       .  A
C1379      C1380   1.410       .  A
C1379     Br1386   1.934       .  S
C1380      C1381   1.424       .  A
C1380     Br1385   1.938       .  S
C1381      C1382   1.412       .  A
C1382     Br1383   1.934       .  S
C1387      C1388   1.406       .  A
C1387      C1392   1.409       .  A
C1387     Br1394   1.932       .  S
C1388      C1389   1.408       .  A
C1389      C1390   1.409       .  A
C1389     Br1396   1.933       .  S
C1390      C1391   1.418       .  A
C1390     Br1395   1.934       .  S
C1391      C1392   1.416       .  A
C1392     Br1393   1.932       .  S
C1397      C1398   1.423       .  A
C1397      C1402   1.407   1_455  A
C1397     Br1404   1.934       .  S
C1398      C1399   1.418   1_455  A
C1399      C1400   1.404       .  A
C1399     Br1406   1.935       .  S
C1400      C1401   1.404       .  A
C1400     Br1405   1.929       .  S
C1401      C1402   1.401       .  A
C1402     Br1403   1.932       .  S
C1407      C1408   1.409       .  A
C1407      C1412   1.414       .  A
C1407     Br1414   1.931       .  S
C1408      C1409   1.410       .  A
C1409      C1410   1.411       .  A
C1409     Br1416   1.930       .  S
C1410      C1411   1.420       .  A
C1410     Br1415   1.935       .  S
C1411      C1412   1.418       .  A
C1412     Br1413   1.928       .  S
C1417      C1418   1.416       .  A
C1417      C1422   1.408       .  A
C1417     Br1424   1.937       .  S
C1418      C1419   1.416       .  A
C1419      C1420   1.427       .  A
C1419     Br1426   1.928       .  S
C1420      C1421   1.422       .  A
C1420     Br1425   1.929       .  S
C1421      C1422   1.418       .  A
C1422     Br1423   1.939       .  S
C1427      C1428   1.406       .  A
C1427      C1432   1.409       .  A
C1427     Br1434   1.929       .  S
C1428      C1429   1.413       .  A
C1429      C1430   1.411       .  A
C1429     Br1436   1.931       .  S
C1430      C1431   1.408       .  A
C1430     Br1435   1.929       .  S
C1431      C1432   1.414       .  A
C1432     Br1433   1.931       .  S
C1437      C1438   1.408   1_545  A
C1437      C1442   1.406       .  A
C1437     Br1444   1.932       .  S
C1438      C1439   1.406       .  A
C1439      C1440   1.406   1_565  A
C1439     Br1446   1.930       .  S
C1440      C1441   1.413       .  A
C1440     Br1445   1.932       .  S
C1441      C1442   1.411       .  A
C1442     Br1443   1.932       .  S
C1447      C1448   1.405       .  A
C1447      C1452   1.391       .  A
C1447     Br1454   1.938       .  S
C1448      C1449   1.406       .  A
C1449      C1450   1.399       .  A
C1449     Br1456   1.929       .  S
C1450      C1451   1.402       .  A
C1450     Br1455   1.927       .  S
C1451      C1452   1.407       .  A
C1452     Br1453   1.938       .  S
C1457      C1458   1.419   1_565  A
C1457      C1462   1.412       .  A
C1457     Br1464   1.932       .  S
C1458      C1459   1.410       .  A
C1459      C1460   1.412       .  A
C1459     Br1466   1.931       .  S
C1460      C1461   1.418       .  A
C1460     Br1465   1.933       .  S
C1461      C1462   1.406   1_545  A
C1462     Br1463   1.930       .  S
C1467      C1468   1.413       .  A
C1467      C1472   1.413       .  A
C1467     Br1474   1.932       .  S
C1468      C1469   1.415       .  A
C1469      C1470   1.410       .  A
C1469     Br1476   1.933       .  S
C1470      C1471   1.411       .  A
C1470     Br1475   1.932       .  S
C1471      C1472   1.413       .  A
C1472     Br1473   1.931       .  S
C1477      C1478   1.405       .  A
C1477      C1482   1.407       .  A
C1477     Br1484   1.923       .  S
C1478      C1479   1.404       .  A
C1479      C1480   1.399       .  A
C1479     Br1486   1.927       .  S
C1480      C1481   1.410       .  A
C1480     Br1485   1.932       .  S
C1481      C1482   1.414       .  A
C1482     Br1483   1.930       .  S
C1487      C1488   1.418       .  A
C1487      C1492   1.419       .  A
C1487     Br1494   1.928       .  S
C1488      C1489   1.409       .  A
C1489      C1490   1.418   1_565  A
C1489     Br1496   1.930   1_565  S
C1490      C1491   1.420   1_545  A
C1490     Br1495   1.927       .  S
C1491      C1492   1.411       .  A
C1492     Br1493   1.927       .  S
C1497      C1498   1.406       .  A
C1497      C1502   1.409       .  A
C1497     Br1504   1.931       .  S
C1498      C1499   1.416       .  A
C1499      C1500   1.410       .  A
C1499     Br1506   1.933       .  S
C1500      C1501   1.408       .  A
C1500     Br1505   1.931       .  S
C1501      C1502   1.420       .  A
C1502     Br1503   1.934       .  S
C1507      C1508   1.407       .  A
C1507      C1512   1.409       .  A
C1507     Br1514   1.931       .  S
C1508      C1509   1.407       .  A
C1509      C1510   1.408       .  A
C1509     Br1516   1.931       .  S
C1510      C1511   1.414       .  A
C1510     Br1515   1.933       .  S
C1511      C1512   1.413       .  A
C1512     Br1513   1.931       .  S
C1517      C1518   1.416       .  A
C1517      C1522   1.421   1_655  A
C1517     Br1524   1.932       .  S
C1518      C1519   1.411   1_655  A
C1519      C1520   1.414       .  A
C1519     Br1526   1.932       .  S
C1520      C1521   1.419       .  A
C1520     Br1525   1.933       .  S
C1521      C1522   1.417       .  A
C1522     Br1523   1.930       .  S
C1527      C1528   1.403       .  A
C1527      C1532   1.405       .  A
C1527     Br1534   1.926       .  S
C1528      C1529   1.403       .  A
C1529      C1530   1.398   1_455  A
C1529     Br1536   1.935       .  S
C1530      C1531   1.418       .  A
C1530     Br1535   1.938       .  S
C1531      C1532   1.413   1_655  A
C1532     Br1533   1.930       .  S
C1537      C1538   1.424       .  A
C1537      C1542   1.411       .  A
C1537     Br1544   1.934       .  S
C1538      C1539   1.418       .  A
C1539      C1540   1.410       .  A
C1539     Br1546   1.934       .  S
C1540      C1541   1.408       .  A
C1540     Br1545   1.928       .  S
C1541      C1542   1.403       .  A
C1542     Br1543   1.930       .  S
C1547      C1548   1.411       .  A
C1547      C1552   1.408       .  A
C1547     Br1554   1.933       .  S
C1548      C1549   1.412       .  A
C1549      C1550   1.405       .  A
C1549     Br1556   1.927       .  S
C1550      C1551   1.406       .  A
C1550     Br1555   1.928       .  S
C1551      C1552   1.411       .  A
C1552     Br1553   1.931       .  S
C1557      C1558   1.419       .  A
C1557      C1562   1.417       .  A
C1557     Br1564   1.932       .  S
C1558      C1559   1.414       .  A
C1559      C1560   1.418       .  A
C1559     Br1566   1.928       .  S
C1560      C1561   1.416       .  A
C1560     Br1565   1.931       .  S
C1561      C1562   1.414       .  A
C1562     Br1563   1.931       .  S
C1567      C1568   1.416       .  A
C1567      C1572   1.396       .  A
C1567     Br1574   1.935       .  S
C1568      C1569   1.415       .  A
C1569      C1570   1.401       .  A
C1569     Br1576   1.931       .  S
C1570      C1571   1.400       .  A
C1570     Br1575   1.927       .  S
C1571      C1572   1.401       .  A
C1572     Br1573   1.931       .  S
C1577      C1578   1.419       .  A
C1577      C1582   1.417       .  A
C1577     Br1584   1.931       .  S
C1578      C1579   1.408       .  A
C1579      C1580   1.416       .  A
C1579     Br1586   1.924       .  S
C1580      C1581   1.418       .  A
C1580     Br1585   1.930       .  S
C1581      C1582   1.410       .  A
C1582     Br1583   1.928       .  S
C1587      C1588   1.407       .  A
C1587      C1592   1.410       .  A
C1587     Br1594   1.932       .  S
C1588      C1589   1.403       .  A
C1589      C1590   1.407       .  A
C1589     Br1596   1.931       .  S
C1590      C1591   1.420       .  A
C1590     Br1595   1.936       .  S
C1591      C1592   1.417       .  A
C1592     Br1593   1.931       .  S
C1597      C1598   1.413       .  A
C1597      C1602   1.409       .  A
C1597     Br1604   1.935       .  S
C1598      C1599   1.416       .  A
C1599      C1600   1.410   1_545  A
C1599     Br1606   1.934       .  S
C1600      C1601   1.413       .  A
C1600     Br1605   1.934       .  S
C1601      C1602   1.417   1_565  A
C1602     Br1603   1.936       .  S
C1607      C1608   1.416       .  A
C1607      C1612   1.420       .  A
C1607     Br1614   1.931       .  S
C1608      C1609   1.412       .  A
C1609      C1610   1.415       .  A
C1609     Br1616   1.932       .  S
C1610      C1611   1.421       .  A
C1610     Br1615   1.936       .  S
C1611      C1612   1.418       .  A
C1612     Br1613   1.929       .  S
C1617      C1618   1.416       .  A
C1617      C1622   1.405       .  A
C1617     Br1624   1.936       .  S
C1618      C1619   1.420       .  A
C1619      C1620   1.402       .  A
C1619     Br1626   1.935       .  S
C1620      C1621   1.409       .  A
C1620     Br1625   1.936       .  S
C1621      C1622   1.414       .  A
C1622     Br1623   1.934       .  S
C1627      C1628   1.404       .  A
C1627      C1632   1.402       .  A
C1627     Br1634   1.928       .  S
C1628      C1629   1.406       .  A
C1629      C1630   1.399       .  A
C1629     Br1636   1.933       .  S
C1630      C1631   1.414       .  A
C1630     Br1635   1.934       .  S
C1631      C1632   1.417       .  A
C1632     Br1633   1.934       .  S
C1637      C1638   1.412       .  A
C1637      C1642   1.411       .  A
C1637     Br1644   1.932       .  S
C1638      C1639   1.419   1_655  A
C1639      C1640   1.415       .  A
C1639     Br1646   1.931       .  S
C1640      C1641   1.410       .  A
C1640     Br1645   1.930       .  S
C1641      C1642   1.413   1_455  A
C1642     Br1643   1.928       .  S
C1647      C1648   1.414       .  A
C1647      C1652   1.411       .  A
C1647     Br1654   1.931       .  S
C1648      C1649   1.411       .  A
C1649      C1650   1.411       .  A
C1649     Br1656   1.931       .  S
C1650      C1651   1.413       .  A
C1650     Br1655   1.931       .  S
C1651      C1652   1.411       .  A
C1652     Br1653   1.932       .  S
C1657      C1658   1.402       .  A
C1657      C1662   1.402       .  A
C1657     Br1664   1.932       .  S
C1658      C1659   1.403       .  A
C1659      C1660   1.405       .  A
C1659     Br1666   1.926       .  S
C1660      C1661   1.418       .  A
C1660     Br1665   1.933       .  S
C1661      C1662   1.419       .  A
C1662     Br1663   1.934       .  S
C1667      C1668   1.414   1_455  A
C1667      C1672   1.422       .  A
C1667     Br1674   1.934       .  S
C1668      C1669   1.415       .  A
C1669      C1670   1.419       .  A
C1669     Br1676   1.939       .  S
C1670      C1671   1.433   1_655  A
C1670     Br1675   1.942       .  S
C1671      C1672   1.428       .  A
C1672     Br1673   1.935       .  S
C1677      C1678   1.422       .  A
C1677      C1682   1.407   1_455  A
C1677     Br1684   1.936       .  S
C1678      C1679   1.419   1_455  A
C1679      C1680   1.400       .  A
C1679     Br1686   1.931       .  S
C1680      C1681   1.408       .  A
C1680     Br1685   1.937       .  S
C1681      C1682   1.408       .  A
C1682     Br1683   1.931   1_655  S
C1687      C1688   1.414       .  A
C1687      C1692   1.423       .  A
C1687     Br1694   1.926       .  S
C1688      C1689   1.412       .  A
C1689      C1690   1.413       .  A
C1689     Br1696   1.932   1_545  S
C1690      C1691   1.415       .  A
C1690     Br1695   1.930       .  S
C1691      C1692   1.415       .  A
C1692     Br1693   1.926       .  S
