geometry optimzed in LAMMPS
_audit_creation_date              2020-12-01 
_audit_creation_method            'lammps2cif' 
_symmetry_space_group_name_H-M    'P1' 
_symmetry_Int_Tables_number       1 
_symmetry_cell_setting            triclinic 
loop_ 
_symmetry_equiv_pos_as_xyz 
  x,y,z 
_cell_length_a                    35.51035218 
_cell_length_b                    35.208463242048396 
_cell_length_c                    43.14133037359932 
_cell_angle_alpha                 90.06248875532688 
_cell_angle_beta                  90.33463827457183 
_cell_angle_gamma                 89.89540045843106 
loop_ 
_atom_site_label 
_atom_site_type_symbol 
_atom_site_fract_x 
_atom_site_fract_y 
_atom_site_fract_z 
_atom_site_charge 
O1          O  0.70352176  0.43879500  0.29950748    -0.82300
C2          C  0.68777512  0.48677233  0.42164106     0.97100
O3          O  0.70736524  0.50468115  0.40198803    -0.71400
O4          O  0.75362809  0.45624581  0.37550224    -0.75000
Al5        Al  0.71823289  0.49211190  0.35937837     1.49000
C6          C  0.75921420  0.42221796  0.36755664     0.92300
O7          O  0.67046278  0.38384582  0.36922901    -0.81200
O8          O  0.60988141  0.46806029  0.33534184    -0.74800
Al9        Al  0.68669993  0.41481526  0.33576854     1.90100
O10         O  0.62130575  0.41729817  0.38146757    -0.73900
O11         O  0.63879910  0.52200456  0.37159259    -0.73700
O12         O  0.65924301  0.46786775  0.41334064    -0.79400
O13         O  0.68803913  0.53276733  0.34290216    -0.77600
O14         O  0.68071322  0.45827219  0.35615002    -1.13700
O15         O  0.73690010  0.48581185  0.31815693    -0.72900
C16         C  0.72649036  0.46550978  0.29562413     0.97800
C17         C  0.63851641  0.38611011  0.38151482     0.94200
Al18       Al  0.63634686  0.46819275  0.37401527     1.55600
O19         O  0.73642349  0.40505091  0.35006089    -0.77500
C20         C  0.65676581  0.54320354  0.35359229     0.98400
C21         C  0.61144942  0.44045750  0.31654211     0.93300
O22         O  0.63789511  0.41635808  0.31751115    -0.82800
O23         O  0.83020605  0.42998920  0.05621561    -0.82300
C24         C  0.77930688  0.48539042  0.17006033     0.97100
O25         O  0.81388935  0.48248388  0.16350263    -0.71400
O26         O  0.83671921  0.41542297  0.14657541    -0.75000
Al27       Al  0.83818247  0.46320938  0.12662567     1.49000
C28         C  0.83687057  0.38432170  0.13232155     0.92300
O29         O  0.75106585  0.39687144  0.10701408    -0.81200
O30         O  0.75600069  0.49528805  0.06236940    -0.74800
Al31       Al  0.79071225  0.41453833  0.08218935     1.90100
O32         O  0.71895329  0.45064010  0.10680623    -0.73900
O33         O  0.78924341  0.53468757  0.10597299    -0.73700
O34         O  0.75491913  0.48796787  0.14903104    -0.79400
O35         O  0.84615185  0.51096548  0.10961262    -0.77600
O36         O  0.79571173  0.45606252  0.10520152    -1.13700
O37         O  0.87037373  0.44456544  0.09369443    -0.72900
C38         C  0.86345941  0.43606877  0.06558095     0.97800
C39         C  0.72098459  0.41504509  0.11193684     0.94200
Al40       Al  0.75800389  0.48962728  0.10611185     1.55600
O41         O  0.82363420  0.38228157  0.10529201    -0.77500
C42         C  0.82451166  0.53818985  0.10372369     0.98400
C43         C  0.74873605  0.46816192  0.04439027     0.93300
O44         O  0.75630350  0.43466873  0.05240818    -0.82800
O45         O  0.94012414  0.21706128  0.23514434    -0.82300
C46         C  0.98849054  0.19075778  0.11647985     0.97100
O47         O  0.98715641  0.21763884  0.13569877    -0.71400
O48         O  0.95312455  0.25465220  0.18008098    -0.75000
Al49       Al  0.99157644  0.21543436  0.17914469     1.49000
C50         C  0.91765085  0.25293000  0.17633847     0.92300
O51         O  0.88615562  0.14920872  0.18228083    -0.81200
O52         O  0.94768671  0.10143410  0.19531887    -0.74800
Al53       Al  0.91848830  0.18234788  0.20569644     1.90100
O54         O  0.91970348  0.13473848  0.14173387    -0.73900
O55         O  0.01404769  0.12666498  0.18049630    -0.73700
O56         O  0.98661379  0.15654148  0.12534740    -0.79400
O57         O  0.03654042  0.18442703  0.17683308    -0.77600
O58         O  0.95902622  0.17708436  0.18219990    -1.13700
O59         O  0.99981954  0.21779948  0.22284648    -0.72900
C60         C  0.97390365  0.22453468  0.24193014     0.97800
C61         C  0.88857838  0.13527635  0.15539927     0.94200
Al62       Al  0.96667320  0.13352957  0.16235467     1.55600
O63         O  0.90007274  0.22240276  0.18109930    -0.77500
C64         C  0.04133586  0.14925797  0.18113077     0.98400
C65         C  0.93964724  0.10873522  0.22331124     0.93300
O66         O  0.93401909  0.14249329  0.23209459    -0.82800
O67         O  0.93766006  0.32603758  0.48331259    -0.82300
C68         C  0.98981197  0.28059908  0.36627116     0.97100
O69         O  0.98690859  0.31485342  0.37506553    -0.71400
O70         O  0.92122826  0.33878573  0.39398699    -0.75000
Al71       Al  0.96954711  0.33768474  0.41316207     1.49000
C72         C  0.89067399  0.33844108  0.40856094     0.92300
O73         O  0.90357334  0.24859909  0.42983811    -0.81200
O74         O  0.00335247  0.25228072  0.47264268    -0.74800
Al75       Al  0.92191044  0.28746704  0.45588751     1.90100
O76         O  0.95667438  0.21616904  0.42905246    -0.73900
O77         O  0.04009426  0.28578667  0.42681023    -0.73700
O78         O  0.99067308  0.25382977  0.38555522    -0.79400
O79         O  0.01839011  0.34388442  0.42951630    -0.77600
O80         O  0.96235965  0.29366325  0.43238961    -1.13700
O81         O  0.95258220  0.36832001  0.44768578    -0.72900
C82         C  0.94361886  0.36000914  0.47531187     0.97800
C83         C  0.92135269  0.21825890  0.42433167     0.94200
Al84       Al  0.99509202  0.25530013  0.42885246     1.55600
O85         O  0.88906688  0.32204038  0.43444525    -0.77500
C86         C  0.04547773  0.32094031  0.43021550     0.98400
C87         C  0.97731195  0.24457054  0.49133553     0.93300
O88         O  0.94349194  0.25131758  0.48415783    -0.82800
O89         O  0.64673862  0.03921514  0.05428604    -0.82300
C90         C  0.70129531  0.98595754  0.16840680     0.97100
O91         O  0.66668092  0.98931798  0.16185720    -0.71400
O92         O  0.64171764  0.05561481  0.14425536    -0.75000
Al93       Al  0.64112526  0.00704450  0.12509288     1.49000
C94         C  0.64041370  0.08633199  0.12948529     0.92300
O95         O  0.72651977  0.07507369  0.10408853    -0.81200
O96         O  0.72267524  0.97596913  0.06049693    -0.74800
Al97       Al  0.68659291  0.05604905  0.07977668     1.90100
O98         O  0.75954460  0.02184991  0.10431647    -0.73900
O99         O  0.69125912  0.93638577  0.10492119    -0.73700
O100        O  0.72540734  0.98417404  0.14730268    -0.79400
O101        O  0.63364934  0.95801221  0.10931895    -0.77600
O102        O  0.68296475  0.01476540  0.10327529    -1.13700
O103        O  0.60791650  0.02410435  0.09224325    -0.72900
C104        C  0.61385984  0.03279269  0.06412800     0.97800
C105        C  0.75710921  0.05753589  0.10877286     0.94200
Al106      Al  0.72141081  0.98210750  0.10426193     1.55600
O107        O  0.65345047  0.08801792  0.10253258    -0.77500
C108        C  0.65608040  0.93118697  0.10426864     0.98400
C109        C  0.72941265  0.00308289  0.04244704     0.93300
O110        O  0.72097614  0.03646064  0.05005007    -0.82800
O111        O  0.77502874  0.03230755  0.29800665    -0.82300
C112        C  0.79129398  0.98625578  0.42045356     0.97100
O113        O  0.77186735  0.96821256  0.40062096    -0.71400
O114        O  0.72631232  0.01751208  0.37466159    -0.75000
Al115      Al  0.76028184  0.98075788  0.35833773     1.49000
C116        C  0.72089935  0.05156559  0.36664619     0.92300
O117        O  0.81034701  0.08845079  0.36665863    -0.81200
O118        O  0.86856127  0.00208514  0.33404754    -0.74800
Al119      Al  0.79277283  0.05691282  0.33380625     1.90100
O120        O  0.85874206  0.05402017  0.37957415    -0.73900
O121        O  0.83885264  0.94956039  0.37111246    -0.73700
O122        O  0.81989704  0.00507676  0.41233889    -0.79400
O123        O  0.78947406  0.93947454  0.34186848    -0.77600
O124        O  0.79828696  0.01383979  0.35474460    -1.13700
O125        O  0.74053382  0.98683624  0.31740767    -0.72900
C126        C  0.75162587  0.00590028  0.29458220     0.97800
C127        C  0.84222451  0.08554165  0.37930860     0.94200
Al128      Al  0.84255077  0.00338722  0.37282147     1.55600
O129        O  0.74335392  0.06798227  0.34850614    -0.77500
C130        C  0.82044131  0.92846319  0.35310298     0.98400
C131        C  0.86732579  0.02921356  0.31477178     0.93300
O132        O  0.84126845  0.05380280  0.31530416    -0.82800
O133        O  0.54121257  0.14591203  0.48308744    -0.82300
C134        C  0.48928739  0.18988751  0.36453273     0.97100
O135        O  0.49443321  0.15591503  0.37329008    -0.71400
O136        O  0.56032943  0.13385684  0.39413654    -0.75000
Al137      Al  0.51161440  0.13376825  0.41190456     1.49000
C138        C  0.59050367  0.13496712  0.40946638     0.92300
O139        O  0.57557718  0.22414190  0.43095374    -0.81200
O140        O  0.47525099  0.21969684  0.47082576    -0.74800
Al141      Al  0.55718538  0.18491474  0.45622365     1.90100
O142        O  0.52177232  0.25521541  0.42735918    -0.73900
O143        O  0.43963623  0.18388837  0.42558531    -0.73700
O144        O  0.48777125  0.21649053  0.38395950    -0.79400
O145        O  0.46266389  0.12618810  0.42683679    -0.77600
O146        O  0.51737293  0.17798017  0.43152973    -1.13700
O147        O  0.52816778  0.10361703  0.44677552    -0.72900
C148        C  0.53576257  0.11189176  0.47476100     0.97800
C149        C  0.55741132  0.25405837  0.42464634     0.94200
Al150      Al  0.48386677  0.21557492  0.42729922     1.55600
O151        O  0.59137570  0.15101690  0.43554586    -0.77500
C152        C  0.43515963  0.14849987  0.42825146     0.98400
C153        C  0.50068900  0.22808217  0.49006645     0.93300
O154        O  0.53463407  0.22096001  0.48405131    -0.82800
O155        O  0.53588327  0.24993263  0.23289019    -0.82300
C156        C  0.48840899  0.28282556  0.11463040     0.97100
O157        O  0.48871631  0.25546922  0.13337921    -0.71400
O158        O  0.52196071  0.21555755  0.17669500    -0.75000
Al159      Al  0.48441878  0.25600818  0.17672693     1.49000
C160        C  0.55746619  0.21673754  0.17305692     0.92300
O161        O  0.59200076  0.31947912  0.18338324    -0.81200
O162        O  0.53127603  0.36739516  0.19663406    -0.74800
Al163      Al  0.55844519  0.28573841  0.20497300     1.90100
O164        O  0.55925834  0.33590662  0.14268679    -0.73900
O165        O  0.46423274  0.34564489  0.17954861    -0.73700
O166        O  0.49187619  0.31667763  0.12420336    -0.79400
O167        O  0.44026153  0.28860599  0.17475446    -0.77600
O168        O  0.51804935  0.29321775  0.18120126    -1.13700
O169        O  0.47611969  0.25190436  0.22034144    -0.72900
C170        C  0.50191814  0.24324077  0.23927785     0.97800
C171        C  0.59011304  0.33500706  0.15706357     0.94200
Al172      Al  0.51190942  0.33764096  0.16235307     1.55600
O173        O  0.57573708  0.24660996  0.17899337    -0.77500
C174        C  0.43624911  0.32395045  0.17893205     0.98400
C175        C  0.53945664  0.35896172  0.22445944     0.93300
O176        O  0.54390877  0.32478032  0.23265951    -0.82800
O177        O  0.14248559  0.92964655  0.21896409    -0.82300
C178        C  0.19639053  0.98446127  0.10654922     0.97100
O179        O  0.16153856  0.98357275  0.11275811    -0.71400
O180        O  0.13625956  0.91729375  0.12893329    -0.75000
Al181      Al  0.13591727  0.96474702  0.14927165     1.49000
C182        C  0.13630531  0.88583213  0.14252012     0.92300
O183        O  0.22282855  0.89666173  0.16961778    -0.81200
O184        O  0.21651771  0.99546116  0.21439374    -0.74800
Al185      Al  0.18236379  0.91446521  0.19362020     1.90100
O186        O  0.25486647  0.95004449  0.17159435    -0.73900
O187        O  0.18624710  0.03481204  0.16873869    -0.73700
O188        O  0.22061255  0.98595422  0.12780435    -0.79400
O189        O  0.12871892  0.01279198  0.16649572    -0.77600
O190        O  0.17802270  0.95628516  0.17094183    -1.13700
O191        O  0.10282998  0.94650715  0.18177008    -0.72900
C192        C  0.10953093  0.93711475  0.20970777     0.97800
C193        C  0.25327667  0.91455956  0.16616232     0.94200
Al194      Al  0.21624828  0.98910323  0.17054876     1.55600
O195        O  0.15007392  0.88273477  0.16932587    -0.77500
C196        C  0.15118980  0.03965813  0.17094700     0.98400
C197        C  0.22333339  0.96819382  0.23243256     0.93300
O198        O  0.21573728  0.93468059  0.22428952    -0.82800
O199        O  0.27497280  0.93811640  0.47771394    -0.82300
C200        C  0.28695597  0.98480659  0.35476792     0.97100
O201        O  0.26807417  0.00278933  0.37489913    -0.71400
O202        O  0.22332917  0.95437150  0.40288108    -0.75000
Al203      Al  0.25886371  0.99081241  0.41781376     1.49000
C204        C  0.21887827  0.92005761  0.41049131     0.92300
O205        O  0.30854667  0.88248963  0.40827791    -0.81200
O206        O  0.36810208  0.96834435  0.43959686    -0.74800
Al207      Al  0.29216184  0.91403985  0.44147201     1.90100
O208        O  0.35604330  0.91690534  0.39433345    -0.73900
O209        O  0.33705895  0.02090598  0.40286067    -0.73700
O210        O  0.31580024  0.96581547  0.36247591    -0.79400
O211        O  0.28936435  0.03198454  0.43320920    -0.77600
O212        O  0.29680725  0.95724095  0.42051805    -1.13700
O213        O  0.24147176  0.98515313  0.45925597    -0.72900
C214        C  0.25180569  0.96473783  0.48167130     0.97800
C215        C  0.33967924  0.88546750  0.39480742     0.94200
Al216      Al  0.34026570  0.96728964  0.40141847     1.55600
O217        O  0.24259461  0.90321642  0.42742571    -0.77500
C218        C  0.31981177  0.04246553  0.42107430     0.98400
C219        C  0.36751619  0.94161748  0.45928094     0.93300
O220        O  0.34141734  0.91711931  0.45939989    -0.82800
O221        O  0.43644927  0.64395663  0.29334391    -0.82300
C222        C  0.48859396  0.69719842  0.40805410     0.97100
O223        O  0.48323537  0.66235360  0.40210225    -0.71400
O224        O  0.41854604  0.63615357  0.38281264    -0.75000
Al225      Al  0.46722223  0.63634905  0.36473507     1.49000
C226        C  0.38837146  0.63485271  0.36757003     0.92300
O227        O  0.40062470  0.72239462  0.34396728    -0.81200
O228        O  0.49843265  0.71905571  0.29963186    -0.74800
Al229      Al  0.41929289  0.68301869  0.31910175     1.90100
O230        O  0.45351788  0.75544253  0.34439127    -0.73900
O231        O  0.53812833  0.68622942  0.34395652    -0.73700
O232        O  0.49213138  0.72076771  0.38652015    -0.79400
O233        O  0.51625994  0.62876120  0.35059057    -0.77600
O234        O  0.46020437  0.67867262  0.34278272    -1.13700
O235        O  0.45171837  0.60352761  0.33075304    -0.72900
C236        C  0.44373718  0.61062844  0.30251867     0.97800
C237        C  0.41814802  0.75301205  0.34905543     0.94200
Al238      Al  0.49300951  0.71703280  0.34361114     1.55600
O239        O  0.38709421  0.64868413  0.34076899    -0.77500
C240        C  0.54300674  0.65072838  0.34477143     0.98400
C241        C  0.47127299  0.72715914  0.28200702     0.93300
O242        O  0.43834794  0.71873009  0.28993320    -0.82800
O243        O  0.44282988  0.77777190  0.03523866    -0.82300
C244        C  0.48538060  0.79157000  0.16009407     0.97100
O245        O  0.50239241  0.77109133  0.14049187    -0.71400
O246        O  0.45519906  0.72625102  0.11130097    -0.75000
Al247      Al  0.49221452  0.76137888  0.09742750     1.49000
C248        C  0.42178338  0.72107159  0.10220931     0.92300
O249        O  0.38456901  0.81031516  0.10362136    -0.81200
O250        O  0.46926199  0.87181294  0.07391442    -0.74800
Al251      Al  0.41700089  0.79441935  0.07097408     1.90100
O252        O  0.41758970  0.85881304  0.11876966    -0.73900
O253        O  0.52139537  0.84164190  0.11124274    -0.73700
O254        O  0.46686025  0.82051636  0.15165577    -0.79400
O255        O  0.53468811  0.79106352  0.08405134    -0.77600
O256        O  0.45917613  0.79978310  0.09327006    -1.13700
O257        O  0.48815959  0.74350092  0.05573204    -0.72900
C258        C  0.46933233  0.75423219  0.03249607     0.97800
C259        C  0.38684152  0.84138515  0.11793982     0.94200
Al260      Al  0.46818277  0.84413363  0.11223822     1.55600
O261        O  0.40609008  0.74419627  0.08403716    -0.77500
C262        C  0.54458366  0.82207513  0.09624868     0.98400
C263        C  0.44299735  0.87061630  0.05391558     0.93300
O264        O  0.41927805  0.84390635  0.05352943    -0.82800
O265        O  0.03379855  0.71782197  0.03853946    -0.82300
C266        C  0.98938663  0.69079989  0.15813794     0.97100
O267        O  0.98832196  0.71725218  0.13861326    -0.71400
O268        O  0.02059061  0.75520181  0.09431568    -0.75000
Al269      Al  0.98352287  0.71468324  0.09526948     1.49000
C270        C  0.05625974  0.75468502  0.09715564     0.92300
O271        O  0.09166825  0.65181289  0.09006015    -0.81200
O272        O  0.03206631  0.60244561  0.07911505    -0.74800
Al273      Al  0.05729757  0.68396448  0.06742410     1.90100
O274        O  0.06010259  0.63797157  0.13168234    -0.73900
O275        O  0.96514591  0.62487523  0.09527958    -0.73700
O276        O  0.99287984  0.65663312  0.14951069    -0.79400
O277        O  0.93991664  0.68169563  0.09746250    -0.77600
O278        O  0.01762237  0.67759773  0.09178771    -1.13700
O279        O  0.97445384  0.71710373  0.05180446    -0.72900
C280        C  0.99974765  0.72479044  0.03251513     0.97800
C281        C  0.09051847  0.63792944  0.11699383     0.94200
Al282      Al  0.01263644  0.63416526  0.11222526     1.55600
O283        O  0.07476442  0.72482228  0.09150915    -0.77500
C284        C  0.93685686  0.64621896  0.09356760     0.98400
C285        C  0.03908934  0.60938921  0.05088255     0.93300
O286        O  0.04246872  0.64318228  0.04142628    -0.82800
O287        O  0.04238054  0.82551168  0.29288292    -0.82300
C288        C  0.98653594  0.77946928  0.40825245     0.97100
O289        O  0.99051706  0.81382351  0.40007130    -0.71400
O290        O  0.05718523  0.83711137  0.38266700    -0.75000
Al291      Al  0.00949512  0.83693144  0.36259042     1.49000
C292        C  0.08800949  0.83673492  0.36849814     0.92300
O293        O  0.07550610  0.74758755  0.34567358    -0.81200
O294        O  0.97681061  0.75279240  0.30166828    -0.74800
Al295      Al  0.05778281  0.78680559  0.32000595     1.90100
O296        O  0.02229669  0.71555399  0.34572695    -0.73900
O297        O  0.93895499  0.78632165  0.34670569    -0.73700
O298        O  0.98684382  0.75312534  0.38858273    -0.79400
O299        O  0.96148209  0.84407454  0.34533575    -0.77600
O300        O  0.01690146  0.79306231  0.34301051    -1.13700
O301        O  0.02740127  0.86779627  0.32861159    -0.72900
C302        C  0.03548146  0.85933340  0.30080128     0.97800
C303        C  0.05772729  0.71713849  0.35033570     0.94200
Al304      Al  0.98385536  0.75513176  0.34545024     1.55600
O305        O  0.09022711  0.82089737  0.34237306    -0.77500
C306        C  0.93419177  0.82164599  0.34351284     0.98400
C307        C  0.00311075  0.74496121  0.28328674     0.93300
O308        O  0.03684523  0.75104065  0.29100720    -0.82800
O309        O  0.32993348  0.54472573  0.22130762    -0.82300
C310        C  0.27990595  0.49077731  0.10641416     0.97100
O311        O  0.31444891  0.49471439  0.11309210    -0.71400
O312        O  0.33802254  0.56084556  0.13175279    -0.75000
Al313      Al  0.33890226  0.51227719  0.15056787     1.49000
C314        C  0.33809034  0.59167728  0.14634222     0.92300
O315        O  0.25127326  0.57770810  0.16917435    -0.81200
O316        O  0.25734037  0.47881774  0.21376052    -0.74800
Al317      Al  0.29065505  0.56024702  0.19481382     1.90100
O318        O  0.21961239  0.52375119  0.16958898    -0.73900
O319        O  0.29025677  0.44020525  0.16937112    -0.73700
O320        O  0.25565249  0.48748173  0.12723688    -0.79400
O321        O  0.34723014  0.46330402  0.16588897    -0.77600
O322        O  0.29637296  0.51889961  0.17160490    -1.13700
O323        O  0.37046952  0.52928325  0.18453852    -0.72900
C324        C  0.36312719  0.53741370  0.21258947     0.97800
C325        C  0.22147386  0.55919207  0.16394924     0.94200
Al326      Al  0.25895446  0.48514338  0.17005513     1.55600
O327        O  0.32373606  0.59350836  0.17284478    -0.77500
C328        C  0.32551502  0.43588543  0.17037546     0.98400
C329        C  0.24941053  0.50560388  0.23188452     0.93300
O330        O  0.25591935  0.53937599  0.22393806    -0.82800
O331        O  0.20334144  0.53283234  0.47625195    -0.82300
C332        C  0.18840406  0.48577882  0.35420105     0.97100
O333        O  0.20895708  0.46807403  0.37359558    -0.71400
O334        O  0.25415817  0.51639187  0.40169819    -0.75000
Al335      Al  0.21930680  0.47959047  0.41665557     1.49000
C336        C  0.25866591  0.55064410  0.40941586     0.92300
O337        O  0.16850668  0.58622765  0.40617165    -0.81200
O338        O  0.11072955  0.50046088  0.44079590    -0.74800
Al339      Al  0.18564100  0.55614726  0.43999852     1.90100
O340        O  0.11964389  0.55191902  0.39477701    -0.73900
O341        O  0.14060170  0.44776854  0.40350993    -0.73700
O342        O  0.15888899  0.50295947  0.36257144    -0.79400
O343        O  0.19043663  0.43765450  0.43204455    -0.77600
O344        O  0.18083552  0.51243162  0.41977697    -1.13700
O345        O  0.23700767  0.48555939  0.45831550    -0.72900
C346        C  0.22632570  0.50610903  0.48055363     0.97800
C347        C  0.13646279  0.58319659  0.39388370     0.94200
Al348      Al  0.13651667  0.50145409  0.40188188     1.55600
O349        O  0.23492099  0.56740115  0.42609511    -0.77500
C350        C  0.15956311  0.42649617  0.42092123     0.98400
C351        C  0.11157637  0.52821324  0.45955503     0.93300
O352        O  0.13694658  0.55335999  0.45818384    -0.82800
C353        C  0.23157134  0.49840496  0.26221018    -0.06000
C354        C  0.21230386  0.52832275  0.27675404    -0.33400
C355        C  0.19689420  0.52381188  0.30614811     0.35900
C356        C  0.20051271  0.48884766  0.32172959    -0.06300
C357        C  0.21898927  0.45853912  0.30708698    -0.33300
C358        C  0.23416584  0.46298284  0.27736243     0.35800
H359        H  0.20962283  0.55570929  0.26550559     0.16100
O360        O  0.17980944  0.55440329  0.31999346    -0.60800
H361        H  0.22210414  0.43155941  0.31889229     0.16100
O362        O  0.25221628  0.43286031  0.26376946    -0.60900
H363        H  0.27894594  0.43523941  0.27027824     0.43100
H364        H  0.19970109  0.56645342  0.33287898     0.43100
C365        C  0.26638028  0.49244433  0.07403264    -0.06000
C366        C  0.28859961  0.47938234  0.04940846    -0.33400
C367        C  0.27552644  0.48218919  0.01868304     0.35900
C368        C  0.24035337  0.49937144  0.01236573    -0.06300
C369        C  0.21834785  0.51225239  0.03709027    -0.33300
C370        C  0.23081231  0.50870892  0.06755012     0.35800
H371        H  0.31599801  0.46695011  0.05398866     0.16100
O372        O  0.29803919  0.46968234  0.49505190    -0.60800
H373        H  0.19122752  0.52552370  0.03285914     0.16100
O374        O  0.20881281  0.52339956  0.09073150    -0.60900
H375        H  0.18898655  0.50412922  0.09437151     0.43100
H376        H  0.29190017  0.44238166  0.49258054     0.43100
C377        C  0.07872800  0.68284300  0.36037090    -0.06000
C378        C  0.06169694  0.64704300  0.35789412    -0.33400
C379        C  0.08070503  0.61419912  0.36734226     0.35900
C380        C  0.11739126  0.61672270  0.38013774    -0.06300
C381        C  0.13479139  0.65241766  0.38182344    -0.33300
C382        C  0.11586679  0.68522675  0.37218136     0.35800
H383        H  0.03344723  0.64437593  0.34852504     0.16100
O384        O  0.06258766  0.57997093  0.36460855    -0.60800
H385        H  0.16292404  0.65518147  0.39140928     0.16100
O386        O  0.13390426  0.71949815  0.37493146    -0.60900
H387        H  0.12664694  0.72941688  0.39558328     0.43100
H388        H  0.07075654  0.56950901  0.34437226     0.43100
C389        C  0.18825519  0.57948127  0.15188378    -0.06000
C390        C  0.15258674  0.57090859  0.16352735    -0.33400
C391        C  0.12075954  0.59077658  0.15327251     0.35900
C392        C  0.12419811  0.61916597  0.13033311    -0.06300
C393        C  0.15998200  0.62727096  0.11835041    -0.33300
C394        C  0.19187681  0.60779298  0.12905103     0.35800
H395        H  0.14942672  0.54905747  0.18098957     0.16100
O396        O  0.08624358  0.58094947  0.16486452    -0.60800
H397        H  0.16324782  0.64857365  0.10046232     0.16100
O398        O  0.22636466  0.61608147  0.11660970    -0.60900
H399        H  0.22824875  0.60009348  0.09774288     0.43100
H400        H  0.08453029  0.59414992  0.18512525     0.43100
C401        C  0.08211520  0.53439151  0.48269109    -0.06000
C402        C  0.09129427  0.52839128  0.01396658    -0.33400
C403        C  0.07399662  0.54993615  0.03726051     0.35900
C404        C  0.04751280  0.57817292  0.02914066    -0.06300
C405        C  0.03535206  0.58100632  0.99823076    -0.33300
C406        C  0.05232027  0.55909630  0.47505971     0.35800
H407        H  0.11476818  0.51007983  0.52005301     0.16100
O408        O  0.08632347  0.54622745  0.06732231    -0.60800
H409        H  0.01484762  0.60242777  0.99168920     0.16100
O410        O  0.04254135  0.56508446  0.44462707    -0.60900
H411        H  0.05742020  0.58743950  0.43799686     0.43100
H412        H  0.10836128  0.56338957  0.06919810     0.43100
C413        C  0.98819400  0.70064372  0.19147489    -0.06000
C414        C  0.96749707  0.73257043  0.20120990    -0.33400
C415        C  0.97039736  0.74599296  0.23172367     0.35900
C416        C  0.99516145  0.72819549  0.25268451    -0.06300
C417        C  0.01509059  0.69575306  0.24331128    -0.33300
C418        C  0.01125826  0.68152983  0.21313096     0.35800
H419        H  0.94982266  0.74779484  0.18484501     0.16100
O420        O  0.95133858  0.77830463  0.24007306    -0.60800
H421        H  0.03434451  0.68189019  0.25929277     0.16100
O422        O  0.03262199  0.65090450  0.20437701    -0.60900
H423        H  0.01673289  0.62839579  0.20861967     0.43100
H424        H  0.92719155  0.76927179  0.24880395     0.43100
C425        C  0.99034677  0.74230537  0.00262842    -0.06000
C426        C  0.96893216  0.72202345  0.48099054    -0.33400
C427        C  0.96595198  0.73476030  0.45035182     0.35900
C428        C  0.98344630  0.76906694  0.44134807    -0.06300
C429        C  0.00245939  0.79074134  0.46380054    -0.33300
C430        C  0.00662468  0.77715930  0.99412733     0.35800
H431        H  0.95651261  0.69504819  0.48733455     0.16100
O432        O  0.94658573  0.71302004  0.42921841    -0.60800
H433        H  0.01626672  0.81697573  0.45737416     0.16100
O434        O  0.02723876  0.79775804  0.01521531    -0.60900
H435        H  0.05377847  0.78999962  0.01191804     0.43100
H436        H  0.96420392  0.69238345  0.42331102     0.43100
C437        C  0.40023022  0.68776331  0.11303912    -0.06000
C438        C  0.36225076  0.69207516  0.12152270    -0.33400
C439        C  0.34141699  0.66099453  0.13234381     0.35900
C440        C  0.35811625  0.62476789  0.13363997    -0.06300
C441        C  0.39575048  0.62034220  0.12457709    -0.33300
C442        C  0.41699146  0.65159712  0.11491420     0.35800
H443        H  0.34898005  0.71979107  0.12040542     0.16100
O444        O  0.30491256  0.66628764  0.14165192    -0.60800
H445        H  0.40907799  0.59266617  0.12588629     0.16100
O446        O  0.45378254  0.64628380  0.10643856    -0.60900
H447        H  0.46843866  0.64778419  0.12604227     0.43100
H448        H  0.28947375  0.66311106  0.12260711     0.43100
C449        C  0.29201779  0.57197730  0.39893707    -0.06000
C450        C  0.28715853  0.60738198  0.38451254    -0.33400
C451        C  0.31830791  0.62834645  0.37441818     0.35900
C452        C  0.35509733  0.61481132  0.37997698    -0.06300
C453        C  0.35993436  0.57991382  0.39530021    -0.33300
C454        C  0.32871538  0.55823599  0.40426669     0.35800
H455        H  0.25904659  0.61845570  0.38052127     0.16100
O456        O  0.31254414  0.66247582  0.35982896    -0.60800
H457        H  0.38800842  0.56885685  0.39946187     0.16100
O458        O  0.33435465  0.52431300  0.41919561    -0.60900
H459        H  0.33533530  0.50498060  0.40248845     0.43100
H460        H  0.30788818  0.65598149  0.33776045     0.43100
C461        C  0.43679269  0.57979975  0.28044980    -0.06000
C462        C  0.41092515  0.55177586  0.28903675    -0.33400
C463        C  0.38873316  0.53402346  0.26644471     0.35900
C464        C  0.39378901  0.54314768  0.23498376    -0.06300
C465        C  0.42411299  0.56612392  0.22627519    -0.33300
C466        C  0.44526616  0.58505102  0.24890265     0.35800
H467        H  0.40419570  0.54746809  0.31325837     0.16100
O468        O  0.36025659  0.51015938  0.27536120    -0.60800
H469        H  0.42842429  0.57316665  0.20209904     0.16100
O470        O  0.47168191  0.61128169  0.24007379    -0.60900
H471        H  0.45717119  0.63378629  0.23296985     0.43100
H472        H  0.33983923  0.52698525  0.28294228     0.43100
C473        C  0.47710242  0.74720160  0.25230626    -0.06000
C474        C  0.51054269  0.74211691  0.23561537    -0.33400
C475        C  0.51460219  0.75802959  0.20603222     0.35900
C476        C  0.48515493  0.77983648  0.19295893    -0.06300
C477        C  0.45291647  0.78708084  0.21059970    -0.33300
C478        C  0.44854555  0.77070558  0.23983063     0.35800
H479        H  0.53297360  0.72458836  0.24498884     0.16100
O480        O  0.54704858  0.75130268  0.18982257    -0.60800
H481        H  0.43005985  0.80395309  0.20108484     0.16100
O482        O  0.41625252  0.77808467  0.25611362    -0.60900
H483        H  0.39691470  0.76095097  0.24711631     0.43100
H484        H  0.56348533  0.77339486  0.19433095     0.43100
C485        C  0.48841978  0.71178497  0.44044819    -0.06000
C486        C  0.48801314  0.68657500  0.46570854    -0.33400
C487        C  0.48343238  0.70012217  0.99609648     0.35900
C488        C  0.47823909  0.73925335  0.00148284    -0.06300
C489        C  0.47968428  0.76448854  0.47655970    -0.33300
C490        C  0.48507004  0.75130930  0.44639149     0.35800
H491        H  0.49034145  0.65625360  0.46187099     0.16100
O492        O  0.48144758  0.67468121  0.02007251    -0.60800
H493        H  0.47614982  0.79470975  0.48046028     0.16100
O494        O  0.48602153  0.77752630  0.42288424    -0.60900
H495        H  0.45930632  0.78193021  0.41703772     0.43100
H496        H  0.50761416  0.67233314  0.02798637     0.43100
C497        C  0.18548267  0.89877890  0.39971440    -0.06000
C498        C  0.14928236  0.91336321  0.40480360    -0.33400
C499        C  0.11725855  0.89259387  0.39601842     0.35900
C500        C  0.12119385  0.85700867  0.38123334    -0.06300
C501        C  0.15750805  0.84267853  0.37591261    -0.33300
C502        C  0.18945813  0.86293708  0.38554433     0.35800
H503        H  0.14584058  0.94071891  0.41598192     0.16100
O504        O  0.08229201  0.90783810  0.40125529    -0.60800
H505        H  0.16111652  0.81566508  0.36422598     0.16100
O506        O  0.22454429  0.84825811  0.37977842    -0.60900
H507        H  0.22998531  0.83105305  0.39744022     0.43100
H508        H  0.07567425  0.92162862  0.38192896     0.43100
C509        C  0.35844971  0.85195729  0.38093775    -0.06000
C510        C  0.34236558  0.81580859  0.38416473    -0.33400
C511        C  0.36119435  0.78336609  0.37364112     0.35900
C512        C  0.39697825  0.78666204  0.35977716    -0.06300
C513        C  0.41271575  0.82279182  0.35602544    -0.33300
C514        C  0.39387789  0.85520650  0.36632510     0.35800
H515        H  0.31540212  0.81247807  0.39546049     0.16100
O516        O  0.34503265  0.74850008  0.37832585    -0.60800
H517        H  0.43986493  0.82606864  0.34501273     0.16100
O518        O  0.41047782  0.88990381  0.36178454    -0.60900
H519        H  0.42874150  0.89279544  0.37910340     0.43100
H520        H  0.32737924  0.74498566  0.36065835     0.43100
C521        C  0.39797399  0.93647050  0.48209462    -0.06000
C522        C  0.39159335  0.94740410  0.01288478    -0.33400
C523        C  0.41123062  0.92981966  0.03724652     0.35900
C524        C  0.43737779  0.90075986  0.03083955    -0.06300
C525        C  0.44659205  0.89279187  0.99995085    -0.33300
C526        C  0.42691538  0.91033064  0.47559360     0.35800
H527        H  0.36860527  0.96658282  0.01821722     0.16100
O528        O  0.40056672  0.93711035  0.06718761    -0.60800
H529        H  0.46588796  0.86980013  0.99472839     0.16100
O530        O  0.43316919  0.89859765  0.44571203    -0.60900
H531        H  0.41732497  0.87566374  0.44285788     0.43100
H532        H  0.42153450  0.95200642  0.07634618     0.43100
C533        C  0.11760223  0.85299553  0.12817053    -0.06000
C534        C  0.08110514  0.85727151  0.11603793    -0.33400
C535        C  0.06063582  0.82567101  0.10575394     0.35900
C536        C  0.07698351  0.78913315  0.10706208    -0.06300
C537        C  0.11410911  0.78531272  0.11824622    -0.33300
C538        C  0.13412930  0.81678090  0.12915065     0.35800
H539        H  0.06788880  0.88504270  0.11561551     0.16100
O540        O  0.02455779  0.83084032  0.09502840    -0.60800
H541        H  0.12747080  0.75765040  0.11931122     0.16100
O542        O  0.17008940  0.81198037  0.14025209    -0.60900
H543        H  0.16713235  0.80396916  0.16213445     0.43100
H544        H  0.02721308  0.83685384  0.07270427     0.43100
C545        C  0.04153886  0.88918458  0.27768039    -0.06000
C546        C  0.06433841  0.92009337  0.28582165    -0.33400
C547        C  0.08340757  0.94022064  0.26289231     0.35900
C548        C  0.07888971  0.92993815  0.23152818    -0.06300
C549        C  0.05153920  0.90309139  0.22324304    -0.33300
C550        C  0.03311318  0.88234462  0.24620023     0.35800
H551        H  0.07109204  0.92559696  0.30994840     0.16100
O552        O  0.11004151  0.96640397  0.27154109    -0.60800
H553        H  0.04802552  0.89475736  0.19920278     0.16100
O554        O  0.01048442  0.85252606  0.23764386    -0.60900
H555        H  0.98437888  0.86154521  0.24108788     0.43100
H556        H  0.09768071  0.99144869  0.26874876     0.43100
C557        C  0.21016348  0.98117178  0.07432530    -0.06000
C558        C  0.18888295  0.99444450  0.04902298    -0.33400
C559        C  0.20225375  0.99018187  0.01857774     0.35900
C560        C  0.23701107  0.97172586  0.01318336    -0.06300
C561        C  0.25782019  0.95819088  0.03852965    -0.33300
C562        C  0.24488505  0.96276871  0.06869141     0.35800
H563        H  0.16194983  0.00811843  0.05284179     0.16100
O564        O  0.18034749  0.00254174  0.49431740    -0.60800
H565        H  0.28439232  0.94363883  0.03503857     0.16100
O566        O  0.26550003  0.94696891  0.09242323    -0.60900
H567        H  0.28620607  0.96516833  0.09662256     0.43100
H568        H  0.18745675  0.02949271  0.49126762     0.43100
C569        C  0.24172227  0.97455474  0.26271050    -0.06000
C570        C  0.23376368  0.00719612  0.28018935    -0.33400
C571        C  0.24937438  0.01189006  0.30988871     0.35900
C572        C  0.27379599  0.98394160  0.32220747    -0.06300
C573        C  0.28309245  0.95234733  0.30394582    -0.33300
C574        C  0.26701773  0.94731046  0.27466955     0.35800
H575        H  0.21451830  0.02848173  0.27121686     0.16100
O576        O  0.23996533  0.04345950  0.32682525    -0.60800
H577        H  0.30176714  0.93050620  0.31285597     0.16100
O578        O  0.27675399  0.91585583  0.25766479    -0.60900
H579        H  0.26083650  0.89501010  0.26574187     0.43100
H580        H  0.26082303  0.06165746  0.32345553     0.43100
C581        C  0.28751653  0.89409460  0.15587973    -0.06000
C582        C  0.32254134  0.91223969  0.15805699    -0.33400
C583        C  0.35518480  0.89483235  0.14703896     0.35900
C584        C  0.35329606  0.85865380  0.13278932    -0.06300
C585        C  0.31844370  0.83993747  0.13151661    -0.33300
C586        C  0.28584443  0.85713978  0.14313364     0.35800
H587        H  0.32474741  0.94033911  0.16816758     0.16100
O588        O  0.38854696  0.91420412  0.14954052    -0.60800
H589        H  0.31621243  0.81208448  0.12097171     0.16100
O590        O  0.25231726  0.83810328  0.14062725    -0.60900
H591        H  0.25073314  0.82244691  0.15967065     0.43100
H592        H  0.39934792  0.90644928  0.16982777     0.43100
C593        C  0.39883539  0.34190779  0.18096568    -0.06000
C594        C  0.39142063  0.36567963  0.20632570    -0.33400
C595        C  0.36367211  0.39386807  0.20438705     0.35900
C596        C  0.34300447  0.39874596  0.17675326    -0.06300
C597        C  0.34797459  0.37282786  0.15237688    -0.33300
C598        C  0.37584278  0.34451200  0.15431407     0.35800
H599        H  0.40942181  0.36455055  0.22668309     0.16100
O600        O  0.35983590  0.41920091  0.22834346    -0.60800
H601        H  0.33290429  0.37687597  0.13071305     0.16100
O602        O  0.38317346  0.32242525  0.12881611    -0.60900
H603        H  0.40206139  0.33678309  0.11670591     0.43100
H604        H  0.33819546  0.40973712  0.24051439     0.43100
C605        C  0.39743259  0.13165937  0.43119565    -0.06000
C606        C  0.38993704  0.10792268  0.45653771    -0.33400
C607        C  0.36024297  0.08173804  0.45531660     0.35900
C608        C  0.33788666  0.07893253  0.42839079    -0.06300
C609        C  0.34349677  0.10484123  0.40413689    -0.33300
C610        C  0.37287647  0.13134901  0.40551633     0.35800
H611        H  0.40905447  0.10747762  0.47621218     0.16100
O612        O  0.35595255  0.05619477  0.47904137    -0.60800
H613        H  0.32739155  0.10205421  0.38283737     0.16100
O614        O  0.38055986  0.15298637  0.37991186    -0.60900
H615        H  0.36496561  0.17617569  0.38229443     0.43100
H616        H  0.37427412  0.03556630  0.47478596     0.43100
C617        C  0.49151792  0.24618993  0.01994344    -0.06000
C618        C  0.50994510  0.27982230  0.02877904    -0.33400
C619        C  0.50630964  0.29432353  0.05893567     0.35900
C620        C  0.48529113  0.27413508  0.08109211    -0.06300
C621        C  0.46521686  0.24167635  0.07160200    -0.33300
C622        C  0.46774460  0.22804770  0.04117077     0.35800
H623        H  0.52817267  0.29418754  0.01250694     0.16100
O624        O  0.52613351  0.32620882  0.06716600    -0.60800
H625        H  0.44870907  0.22588118  0.08822657     0.16100
O626        O  0.44968549  0.19499607  0.03328674    -0.60900
H627        H  0.42593584  0.20313465  0.02305259     0.43100
H628        H  0.50831649  0.34760840  0.06408777     0.43100
C629        C  0.49319229  0.22549964  0.26935524    -0.06000
C630        C  0.46946151  0.24429466  0.29014279    -0.33400
C631        C  0.46659619  0.23195366  0.32093608     0.35900
C632        C  0.48670334  0.19951768  0.33108644    -0.06300
C633        C  0.50804348  0.17898401  0.30946126    -0.33300
C634        C  0.51189531  0.19214596  0.27894466     0.35800
H635        H  0.45490616  0.26995721  0.28303537     0.16100
O636        O  0.44444729  0.25213240  0.34106996    -0.60800
H637        H  0.52363951  0.15400300  0.31668259     0.16100
O638        O  0.53426474  0.17243723  0.25866663    -0.60900
H639        H  0.56031055  0.18106642  0.26311441     0.43100
H640        H  0.45977658  0.27442915  0.34728121     0.43100
C641        C  0.89645151  0.83849083  0.33964747    -0.06000
C642        C  0.87098700  0.83640985  0.36432080    -0.33400
C643        C  0.84202419  0.86334392  0.36712671     0.35900
C644        C  0.83773712  0.89198716  0.34460918    -0.06300
C645        C  0.86044322  0.89120830  0.31816057    -0.33300
C646        C  0.88995428  0.86495890  0.31573622     0.35800
H647        H  0.87614734  0.81676441  0.38320370     0.16100
O648        O  0.82114222  0.86432512  0.39375662    -0.60800
H649        H  0.85811601  0.91370206  0.30110988     0.16100
O650        O  0.91491151  0.86821604  0.29173892    -0.60900
H651        H  0.90530013  0.85081942  0.27544708     0.43100
H652        H  0.79735424  0.85104621  0.38847571     0.43100
C653        C  0.68768463  0.07272507  0.37827752    -0.06000
C654        C  0.69072743  0.11165271  0.38535674    -0.33400
C655        C  0.65937759  0.13238577  0.39572628     0.35900
C656        C  0.62408021  0.11456781  0.39807778    -0.06300
C657        C  0.62099880  0.07581289  0.39090293    -0.33300
C658        C  0.65255034  0.05474415  0.38170275     0.35800
H659        H  0.71760192  0.12590928  0.38317665     0.16100
O660        O  0.66344652  0.17001855  0.40326508    -0.60800
H661        H  0.59408922  0.06161300  0.39307336     0.16100
O662        O  0.64839079  0.01691187  0.37493482    -0.60900
H663        H  0.65089521  0.00366686  0.39512509     0.43100
H664        H  0.65700127  0.18411904  0.38406297     0.43100
C665        C  0.58301726  0.83746253  0.09359109    -0.06000
C666        C  0.60470898  0.84098792  0.12079283    -0.33400
C667        C  0.63288569  0.86875624  0.12323495     0.35900
C668        C  0.63949934  0.89350623  0.09829586    -0.06300
C669        C  0.62039715  0.88746505  0.07012318    -0.33300
C670        C  0.59252557  0.85939561  0.06756816     0.35800
H671        H  0.59723202  0.82479972  0.14120403     0.16100
O672        O  0.65101506  0.87406271  0.15108005    -0.60800
H673        H  0.62460514  0.90687672  0.05097751     0.16100
O674        O  0.57127027  0.85731199  0.04098453    -0.60900
H675        H  0.58099165  0.83479965  0.02973113     0.43100
H676        H  0.63529946  0.89256232  0.16260191     0.43100
C677        C  0.57837049  0.18297166  0.16228613    -0.06000
C678        C  0.61078492  0.18807386  0.14428988    -0.33400
C679        C  0.63180451  0.15690755  0.13408575     0.35900
C680        C  0.62106692  0.11983255  0.14247134    -0.06300
C681        C  0.58903756  0.11472558  0.16093413    -0.33300
C682        C  0.56735565  0.14590122  0.17038230     0.35800
H683        H  0.61958258  0.21638003  0.13767957     0.16100
O684        O  0.66254076  0.16296700  0.11562647    -0.60800
H685        H  0.58000390  0.08637313  0.16715539     0.16100
O686        O  0.53608426  0.13986516  0.18819563    -0.60900
H687        H  0.51550594  0.13436505  0.17321494     0.43100
H688        H  0.68283755  0.17126916  0.12996707     0.43100
C689        C  0.54311885  0.08162038  0.49750036    -0.06000
C690        C  0.53624162  0.08873248  0.02898585    -0.33400
C691        C  0.55522143  0.06805068  0.05188969     0.35900
C692        C  0.58227000  0.04088163  0.04314096    -0.06300
C693        C  0.58521456  0.03026162  0.01193823    -0.33300
C694        C  0.56521305  0.05000406  0.48908401     0.35800
H695        H  0.51890938  0.11267199  0.03578664     0.16100
O696        O  0.55161539  0.07882241  0.08229932    -0.60800
H697        H  0.60582935  0.00919601  0.00502320     0.16100
O698        O  0.57209244  0.04187892  0.45854200    -0.60900
H699        H  0.55298596  0.02261035  0.45272462     0.43100
H700        H  0.53139676  0.06246450  0.09067441     0.43100
C701        C  0.74797066  0.99653694  0.01256412    -0.06000
C702        C  0.73791820  0.96514920  0.49440712    -0.33400
C703        C  0.75278718  0.96053393  0.46468822     0.35900
C704        C  0.77895097  0.98708880  0.45308550    -0.06300
C705        C  0.79025770  0.01751863  0.47200838    -0.33300
C706        C  0.77473612  0.02256940  0.00136904     0.35800
H707        H  0.71725434  0.94504941  0.50275162     0.16100
O708        O  0.74038266  0.93079124  0.44682584    -0.60800
H709        H  0.80994361  0.03851878  0.46352590     0.16100
O710        O  0.78528042  0.05357300  0.01864782    -0.60900
H711        H  0.80633528  0.04456353  0.03194342     0.43100
H712        H  0.75930954  0.91039291  0.44990113     0.43100
C713        C  0.71449787  0.98642539  0.20110539    -0.06000
C714        C  0.68880933  0.98253661  0.22562303    -0.33400
C715        C  0.70059333  0.98727652  0.25652303     0.35900
C716        C  0.73826907  0.99696157  0.26307885    -0.06300
C717        C  0.76399726  0.99978148  0.23879562    -0.33300
C718        C  0.75268284  0.99425939  0.20818962     0.35800
H719        H  0.65941018  0.97667057  0.22082597     0.16100
O720        O  0.67463624  0.98493678  0.27985422    -0.60800
H721        H  0.79318123  0.00684525  0.24353935     0.16100
O722        O  0.77896909  0.99901629  0.18534177    -0.60900
H723        H  0.79171974  0.97403666  0.18343931     0.43100
H724        H  0.67404439  0.95771125  0.28567474     0.43100
C725        C  0.08368885  0.33681479  0.43329065    -0.06000
C726        C  0.09133003  0.36158884  0.45801575    -0.33400
C727        C  0.12089334  0.38777755  0.45621680     0.35900
C728        C  0.14274807  0.38977836  0.42920592    -0.06300
C729        C  0.13764164  0.36232718  0.40591645    -0.33300
C730        C  0.10863353  0.33544791  0.40807313     0.35800
H731        H  0.07227648  0.36295326  0.47752251     0.16100
O732        O  0.12543801  0.41418236  0.47935885    -0.60800
H733        H  0.15376219  0.36407274  0.38471314     0.16100
O734        O  0.10168893  0.31172101  0.38347211    -0.60900
H735        H  0.11474871  0.28765422  0.38876444     0.43100
H736        H  0.10605639  0.43390737  0.47530705     0.43100
C737        C  0.90059849  0.18457656  0.41310493    -0.06000
C738        C  0.91465128  0.14819975  0.41955961    -0.33400
C739        C  0.89543235  0.11578016  0.40956843     0.35900
C740        C  0.86151648  0.11929948  0.39242188    -0.06300
C741        C  0.84750918  0.15579402  0.38597740    -0.33300
C742        C  0.86681366  0.18821624  0.39599680     0.35800
H743        H  0.94054005  0.14480133  0.43270078     0.16100
O744        O  0.91048997  0.08085613  0.41642229    -0.60800
H745        H  0.82195336  0.15933129  0.37243903     0.16100
O746        O  0.85281435  0.22331020  0.38825871    -0.60900
H747        H  0.86567203  0.23025334  0.36872009     0.43100
H748        H  0.89884845  0.07339015  0.43634917     0.43100
C749        C  0.13480058  0.07657517  0.17917846    -0.06000
C750        C  0.11232451  0.07798550  0.20574474    -0.33400
C751        C  0.08459433  0.10580071  0.20885967     0.35900
C752        C  0.07896127  0.13256402  0.18509725    -0.06300
C753        C  0.10454285  0.13419748  0.16044340    -0.33300
C754        C  0.13233781  0.10602893  0.15723604     0.35800
H755        H  0.11376776  0.05522185  0.22262465     0.16100
O756        O  0.06005320  0.10368338  0.23324492    -0.60800
H757        H  0.10017489  0.15440738  0.14183135     0.16100
O758        O  0.15399254  0.10513349  0.13101627    -0.60900
H759        H  0.13841602  0.09195110  0.11518323     0.43100
H760        H  0.06867815  0.12337325  0.24810825     0.43100
C761        C  0.79051447  0.07905252  0.11916840    -0.06000
C762        C  0.82647086  0.06794234  0.10934351    -0.33400
C763        C  0.85862051  0.08713663  0.11979766     0.35900
C764        C  0.85512234  0.11763153  0.14087664    -0.06300
C765        C  0.81907604  0.12916498  0.15016939    -0.33300
C766        C  0.78693096  0.11050184  0.13918052     0.35800
H767        H  0.82967966  0.04414911  0.09361810     0.16100
O768        O  0.89331115  0.07498044  0.11003179    -0.60800
H769        H  0.81577835  0.15248286  0.16635262     0.16100
O770        O  0.75226229  0.12194743  0.14950010    -0.60900
H771        H  0.74563122  0.14425688  0.13655463     0.43100
H772        H  0.90163394  0.05612230  0.12571363     0.43100
C773        C  0.89771695  0.03582693  0.29261732    -0.06000
C774        C  0.89195807  0.02625390  0.26137758    -0.33400
C775        C  0.91002979  0.04673352  0.23788740     0.35900
C776        C  0.93299776  0.07795125  0.24579341    -0.06300
C777        C  0.94223475  0.08425884  0.27703196    -0.33300
C778        C  0.92484120  0.06329856  0.30040317     0.35800
H779        H  0.87056243  0.00566757  0.25511913     0.16100
O780        O  0.90076312  0.03954687  0.20754197    -0.60800
H781        H  0.96023494  0.10785701  0.28345703     0.16100
O782        O  0.93109601  0.07293863  0.33084163    -0.60900
H783        H  0.91436419  0.09496986  0.33487448     0.43100
H784        H  0.91999132  0.02119340  0.20027678     0.43100
C785        C  0.99063429  0.19997140  0.08313413    -0.06000
C786        C  0.01343695  0.23015743  0.07318191    -0.33400
C787        C  0.01129132  0.24342291  0.04256453     0.35900
C788        C  0.98535756  0.22710324  0.02172261    -0.06300
C789        C  0.96354040  0.19611695  0.03136604    -0.33300
C790        C  0.96650518  0.18208597  0.06163651     0.35800
H791        H  0.03212033  0.24422229  0.08947053     0.16100
O792        O  0.03302988  0.27368541  0.53378938    -0.60800
H793        H  0.94332332  0.18341821  0.01556023     0.16100
O794        O  0.94324529  0.15313348  0.07068865    -0.60900
H795        H  0.95741967  0.12949365  0.06620031     0.43100
H796        H  0.01711018  0.29643925  0.03724816     0.43100
C797        C  0.99046621  0.27083429  0.33296144    -0.06000
C798        C  0.01264321  0.24015529  0.32279300    -0.33400
C799        C  0.00912473  0.22613718  0.29249108     0.35900
C800        C  0.98226446  0.24201272  0.27223982    -0.06300
C801        C  0.96079477  0.27326058  0.28207816    -0.33300
C802        C  0.96515454  0.28808939  0.31202129     0.35800
H803        H  0.03194055  0.22628187  0.33872092     0.16100
O804        O  0.02975354  0.19497696  0.28377639    -0.60800
H805        H  0.93990765  0.28563698  0.26668351     0.16100
O806        O  0.94214786  0.31719134  0.32140792    -0.60900
H807        H  0.95628521  0.34073639  0.31674918     0.43100
H808        H  0.05270454  0.20540118  0.27396801     0.43100
C809        C  0.84245004  0.57368031  0.09361805    -0.06000
C810        C  0.86907501  0.57073539  0.06986154    -0.33400
C811        C  0.89793663  0.59734067  0.06725624     0.35900
C812        C  0.90013813  0.62778187  0.08837088    -0.06300
C813        C  0.87054810  0.63367601  0.10934056    -0.33300
C814        C  0.84160498  0.60665764  0.11203816     0.35800
H815        H  0.86978145  0.54561056  0.05530388     0.16100
O816        O  0.92562304  0.59180026  0.04559176    -0.60800
H817        H  0.87199664  0.65688758  0.12580882     0.16100
O818        O  0.81574771  0.61025686  0.13531515    -0.60900
H819        H  0.79387442  0.62324602  0.12561178     0.43100
H820        H  0.94175460  0.57113099  0.05395509     0.43100
C821        C  0.68772146  0.39414747  0.12322693    -0.06000
C822        C  0.65159481  0.40487875  0.11333742    -0.33400
C823        C  0.61976252  0.38495968  0.12323210     0.35900
C824        C  0.62361653  0.35419539  0.14403276    -0.06300
C825        C  0.65984035  0.34366936  0.15409258    -0.33300
C826        C  0.69170901  0.36316952  0.14372626     0.35800
H827        H  0.64802183  0.42860711  0.09760969     0.16100
O828        O  0.58490358  0.39703400  0.11352559    -0.60800
H829        H  0.66348133  0.32035037  0.17021124     0.16100
O830        O  0.72656527  0.35214179  0.15429463    -0.60900
H831        H  0.73261899  0.36980637  0.17153513     0.43100
H832        H  0.58026468  0.38356893  0.09366801     0.43100
C833        C  0.89624048  0.28686688  0.16659319    -0.06000
C834        C  0.86290349  0.28226687  0.14932222    -0.33400
C835        C  0.84258431  0.31380080  0.13883812     0.35900
C836        C  0.85508571  0.35069658  0.14610218    -0.06300
C837        C  0.88765631  0.35533011  0.16429143    -0.33300
C838        C  0.90837872  0.32377994  0.17432272     0.35800
H839        H  0.85305291  0.25410204  0.14321799     0.16100
O840        O  0.81094274  0.30823962  0.12102114    -0.60800
H841        H  0.89788602  0.38354404  0.16976778     0.16100
O842        O  0.94058255  0.32941434  0.19141003    -0.60900
H843        H  0.93266127  0.32741749  0.21335273     0.43100
H844        H  0.78978138  0.30760470  0.13591352     0.43100
C845        C  0.89423702  0.42839740  0.04382961    -0.06000
C846        C  0.88927926  0.43800302  0.01251115    -0.33400
C847        C  0.90977533  0.41932463  0.48950031     0.35900
C848        C  0.93491045  0.39004247  0.49785289    -0.06300
C849        C  0.94325001  0.38389015  0.02928139    -0.33300
C850        C  0.92326250  0.40312867  0.05233300     0.35800
H851        H  0.86698244  0.45740383  0.00571568     0.16100
O852        O  0.90071254  0.42577347  0.45900089    -0.60800
H853        H  0.96266382  0.36151919  0.03596657     0.16100
O854        O  0.92912841  0.39356059  0.08281348    -0.60900
H855        H  0.91239432  0.37141743  0.08666777     0.43100
H856        H  0.91911870  0.44495017  0.45185584     0.43100
C857        C  0.63865058  0.57910109  0.34442267    -0.06000
C858        C  0.61325159  0.57797701  0.31946709    -0.33400
C859        C  0.58388422  0.60446465  0.31731749     0.35900
C860        C  0.58021210  0.63313253  0.33990693    -0.06300
C861        C  0.60810226  0.63678960  0.36289828    -0.33300
C862        C  0.63709179  0.60972764  0.36540076     0.35800
H863        H  0.61366798  0.55413480  0.30354430     0.16100
O864        O  0.55703320  0.60030098  0.29454654    -0.60800
H865        H  0.60514375  0.65813198  0.38084043     0.16100
O866        O  0.66101514  0.61094234  0.39044525    -0.60900
H867        H  0.68460197  0.62225983  0.38248844     0.43100
H868        H  0.53963351  0.58047944  0.30226650     0.43100
C869        C  0.61958939  0.35216680  0.39450293    -0.06000
C870        C  0.58405784  0.35642305  0.40841946    -0.33400
C871        C  0.56339853  0.32488078  0.41812736     0.35900
C872        C  0.57835139  0.28809069  0.41452877    -0.06300
C873        C  0.61417279  0.28377600  0.40126668    -0.33300
C874        C  0.63467402  0.31530424  0.39119293     0.35800
H875        H  0.57173864  0.38436052  0.41135944     0.16100
O876        O  0.52905276  0.33050603  0.43181022    -0.60800
H877        H  0.62612650  0.25570711  0.39810608     0.16100
O878        O  0.66868551  0.30946208  0.37705557    -0.60900
H879        H  0.68759852  0.31023064  0.39404513     0.43100
H880        H  0.51089373  0.33310826  0.41438140     0.43100
C881        C  0.58185983  0.43345364  0.29360240    -0.06000
C882        C  0.59042859  0.44004222  0.26243246    -0.33400
C883        C  0.57371139  0.41812304  0.23906947     0.35900
C884        C  0.54812799  0.38919203  0.24696971    -0.06300
C885        C  0.53681263  0.38527766  0.27790696    -0.33300
C886        C  0.55318540  0.40763458  0.30117311     0.35800
H887        H  0.61322902  0.45907887  0.25648098     0.16100
O888        O  0.58596204  0.42211132  0.20913459    -0.60800
H889        H  0.51731318  0.36301073  0.28429396     0.16100
O890        O  0.54485460  0.40030534  0.33159381    -0.60900
H891        H  0.52553210  0.41942252  0.33723991     0.43100
H892        H  0.60822283  0.40518380  0.20741420     0.43100
C893        C  0.79280818  0.40160755  0.37861479    -0.06000
C894        C  0.82839071  0.41090070  0.36705526    -0.33400
C895        C  0.86031361  0.38969621  0.37559384     0.35900
C896        C  0.85700080  0.35902149  0.39653870    -0.06300
C897        C  0.82114013  0.35003565  0.40813349    -0.33300
C898        C  0.78924076  0.37086890  0.39914794     0.35800
H899        H  0.83133953  0.43435404  0.35100721     0.16100
O900        O  0.89475126  0.40025464  0.36429133    -0.57600
H901        H  0.81779219  0.32680341  0.42432819     0.16100
O902        O  0.75465433  0.36102943  0.41062364    -0.60900
H903        H  0.75051581  0.37820668  0.42852962     0.43100
H904        H  0.89718829  0.38668874  0.34424004     0.43100
C905        C  0.69985653  0.48536505  0.45436075    -0.06000
C906        C  0.69168059  0.45253806  0.47141362    -0.33400
C907        C  0.70713829  0.44694236  0.50080661     0.35900
C908        C  0.73056537  0.47488105  0.01410187    -0.06300
C909        C  0.73720780  0.50869687  0.99781733    -0.33300
C910        C  0.72230981  0.51392365  0.46796590     0.35800
H911        H  0.67455089  0.43016678  0.46139604     0.16100
O912        O  0.69877539  0.41415346  0.51649243    -0.60800
H913        H  0.75500750  0.53053129  0.00780612     0.16100
O914        O  0.73047146  0.54660524  0.45212528    -0.60900
H915        H  0.70973550  0.56442901  0.45718123     0.43100
H916        H  0.71588941  0.39457298  0.50785112     0.43100
C917        C  0.74062676  0.47286295  0.26398302    -0.06000
C918        C  0.71853176  0.46098435  0.23881055    -0.33400
C919        C  0.73062104  0.46601428  0.20847300     0.35900
C920        C  0.76596680  0.48280252  0.20246337    -0.06300
C921        C  0.78842726  0.49460815  0.22758908    -0.33300
C922        C  0.77572889  0.49025288  0.25822976     0.35800
H923        H  0.69153101  0.44748209  0.24258280     0.16100
O924        O  0.70843453  0.45221302  0.18487752    -0.60800
H925        H  0.81577772  0.50715438  0.22348160     0.16100
O926        O  0.79856312  0.50142516  0.28229106    -0.60900
H927        H  0.79241406  0.52857411  0.28576143     0.43100
H928        H  0.68925412  0.47219853  0.18101336     0.43100
O929        O  0.70349856  0.43882689  0.79950280    -0.82300
C930        C  0.68775465  0.48677866  0.92164350     0.97100
O931        O  0.70733921  0.50469611  0.90199263    -0.71400
O932        O  0.75359887  0.45624358  0.87553111    -0.75000
Al933      Al  0.71822331  0.49211532  0.85938864     1.49000
C934        C  0.75920437  0.42222921  0.86755745     0.92300
O935        O  0.67047256  0.38385116  0.86922264    -0.81200
O936        O  0.60987466  0.46806335  0.83533779    -0.74800
Al937      Al  0.68669636  0.41482890  0.83576056     1.90100
O938        O  0.62130815  0.41729671  0.88146141    -0.73900
O939        O  0.63878971  0.52200763  0.87158680    -0.73700
O940        O  0.65922831  0.46786821  0.91333994    -0.79400
O941        O  0.68803628  0.53276954  0.84290080    -0.77600
O942        O  0.68070463  0.45827893  0.85614999    -1.13700
O943        O  0.73691337  0.48580702  0.81817110    -0.72900
C944        C  0.72648679  0.46552678  0.79562946     0.97800
C945        C  0.63852568  0.38611170  0.88151031     0.94200
Al946      Al  0.63633754  0.46819485  0.87401215     1.55600
O947        O  0.73643316  0.40507414  0.85003626    -0.77500
C948        C  0.65675973  0.54320544  0.85358672     0.98400
C949        C  0.61144072  0.44045784  0.81654114     0.93300
O950        O  0.63788605  0.41635857  0.81751216    -0.82800
O951        O  0.83020314  0.42998563  0.55622157    -0.82300
C952        C  0.77931056  0.48540020  0.67006588     0.97100
O953        O  0.81389268  0.48248631  0.66350852    -0.71400
O954        O  0.83671848  0.41542350  0.64658132    -0.75000
Al955      Al  0.83818409  0.46320962  0.62663088     1.49000
C956        C  0.83686674  0.38432178  0.63232810     0.92300
O957        O  0.75106128  0.39687928  0.60702322    -0.81200
O958        O  0.75600489  0.49529230  0.56237352    -0.74800
Al959      Al  0.79070845  0.41454049  0.58219678     1.90100
O960        O  0.71895289  0.45065062  0.60681278    -0.73900
O961        O  0.78924993  0.53469076  0.60597558    -0.73700
O962        O  0.75492389  0.48797913  0.64903572    -0.79400
O963        O  0.84615683  0.51096550  0.60961714    -0.77600
O964        O  0.79571237  0.45606558  0.60520735    -1.13700
O965        O  0.87037286  0.44456237  0.59369896    -0.72900
C966        C  0.86345714  0.43606358  0.56558607     0.97800
C967        C  0.72098161  0.41505592  0.61194518     0.94200
Al968      Al  0.75800750  0.48963402  0.60611643     1.55600
O969        O  0.82362791  0.38228162  0.60529946    -0.77500
C970        C  0.82451819  0.53819087  0.60372704     0.98400
C971        C  0.74873869  0.46816586  0.54439521     0.93300
O972        O  0.75630103  0.43467229  0.55241523    -0.82800
O973        O  0.94012269  0.21705594  0.73514110    -0.82300
C974        C  0.98848680  0.19075835  0.61647612     0.97100
O975        O  0.98715409  0.21763827  0.63569620    -0.71400
O976        O  0.95312229  0.25464887  0.68007979    -0.75000
Al977      Al  0.99157478  0.21543153  0.67914192     1.49000
C978        C  0.91764852  0.25292677  0.67633732     0.92300
O979        O  0.88615471  0.14920464  0.68227764    -0.81200
O980        O  0.94768782  0.10143018  0.69531462    -0.74800
Al981      Al  0.91848723  0.18234352  0.70569302     1.90100
O982        O  0.91970190  0.13473537  0.64173016    -0.73900
O983        O  0.01404752  0.12666277  0.68049008    -0.73700
O984        O  0.98661044  0.15654143  0.62534244    -0.79400
O985        O  0.03653929  0.18442528  0.67682912    -0.77600
O986        O  0.95902496  0.17708109  0.68219611    -1.13700
O987        O  0.99981835  0.21779374  0.72284372    -0.72900
C988        C  0.97390231  0.22452741  0.74192749     0.97800
C989        C  0.88857704  0.13527326  0.65539581     0.94200
Al990      Al  0.96667221  0.13352710  0.66234989     1.55600
O991        O  0.90007080  0.22239893  0.68109675    -0.77500
C992        C  0.04133522  0.14925620  0.68112601     0.98400
C993        C  0.93964902  0.10873131  0.72330723     0.93300
O994        O  0.93401920  0.14248911  0.73209031    -0.82800
O995        O  0.93767199  0.32603980  0.98331866    -0.82300
C996        C  0.98979613  0.28058691  0.86627116     0.97100
O997        O  0.98688444  0.31484154  0.87506147    -0.71400
O998        O  0.92119944  0.33875516  0.89398793    -0.75000
Al999      Al  0.96952582  0.33767598  0.91315613     1.49000
C1000       C  0.89065163  0.33842888  0.90857199     0.92300
O1001       O  0.90356400  0.24859873  0.92985426    -0.81200
O1002       O  0.00335119  0.25228283  0.97264624    -0.74800
Al1003     Al  0.92190898  0.28746796  0.95589957     1.90100
O1004       O  0.95666684  0.21616910  0.92906020    -0.73900
O1005       O  0.04008317  0.28579098  0.92681128    -0.73700
O1006       O  0.99066431  0.25382196  0.88555889    -0.79400
O1007       O  0.01837258  0.34388871  0.92950077    -0.77600
O1008       O  0.96235123  0.29365979  0.93239312    -1.13700
O1009       O  0.95256431  0.36831723  0.94767892    -0.72900
C1010       C  0.94361813  0.36001122  0.97531023     0.97800
C1011       C  0.92134399  0.21825928  0.92434382     0.94200
Al1012     Al  0.99508509  0.25529915  0.92885632     1.55600
O1013       O  0.88906020  0.32204609  0.93446504    -0.77500
C1014       C  0.04546247  0.32094684  0.93020740     0.98400
C1015       C  0.97731369  0.24457002  0.99134092     0.93300
O1016       O  0.94349304  0.25131693  0.98416639    -0.82800
O1017       O  0.64673237  0.03921703  0.55428629    -0.82300
C1018       C  0.70129344  0.98595998  0.66840617     0.97100
O1019       O  0.66667874  0.98931937  0.66185725    -0.71400
O1020       O  0.64171612  0.05561677  0.64425611    -0.75000
Al1021     Al  0.64112193  0.00704685  0.62509334     1.49000
C1022       C  0.64041159  0.08633383  0.62948594     0.92300
O1023       O  0.72651587  0.07507586  0.60408621    -0.81200
O1024       O  0.72266976  0.97597106  0.56049561    -0.74800
Al1025     Al  0.68658783  0.05605105  0.57977574     1.90100
O1026       O  0.75954029  0.02185182  0.60431405    -0.73900
O1027       O  0.69125449  0.93638820  0.60492043    -0.73700
O1028       O  0.72540469  0.98417668  0.64730143    -0.79400
O1029       O  0.63364490  0.95801514  0.60931864    -0.77600
O1030       O  0.68296061  0.01476762  0.60327467    -1.13700
O1031       O  0.60791167  0.02410762  0.59224478    -0.72900
C1032       C  0.61385393  0.03279504  0.56412915     0.97800
C1033       C  0.75710534  0.05753788  0.60876997     0.94200
Al1034     Al  0.72140656  0.98210967  0.60426060     1.55600
O1035       O  0.65344669  0.08801974  0.60253269    -0.77500
C1036       C  0.65607567  0.93118988  0.60426758     0.98400
C1037       C  0.72940654  0.00308476  0.54244550     0.93300
O1038       O  0.72096956  0.03646241  0.55004836    -0.82800
O1039       O  0.77503271  0.03230689  0.79800604    -0.82300
C1040       C  0.79129811  0.98625601  0.92045388     0.97100
O1041       O  0.77187229  0.96821225  0.90062106    -0.71400
O1042       O  0.72631714  0.01751104  0.87466196    -0.75000
Al1043     Al  0.76028663  0.98075752  0.85833768     1.49000
C1044       C  0.72090346  0.05156435  0.86664652     0.92300
O1045       O  0.81034828  0.08845164  0.86665804    -0.81200
O1046       O  0.86856586  0.00208771  0.83404829    -0.74800
Al1047     Al  0.79277585  0.05691289  0.83380572     1.90100
O1048       O  0.85874398  0.05402263  0.87957494    -0.73900
O1049       O  0.83885809  0.94956213  0.87111265    -0.73700
O1050       O  0.81990054  0.00507796  0.91233927    -0.79400
O1051       O  0.78947972  0.93947487  0.84186858    -0.77600
O1052       O  0.79829097  0.01384025  0.85474449    -1.13700
O1053       O  0.74053802  0.98683565  0.81740730    -0.72900
C1054       C  0.75162959  0.00589980  0.79458161     0.97800
C1055       C  0.84222483  0.08554329  0.87930962     0.94200
Al1056     Al  0.84255473  0.00338911  0.87282190     1.55600
O1057       O  0.74335667  0.06798094  0.84850528    -0.77500
C1058       C  0.82044705  0.92846423  0.85310346     0.98400
C1059       C  0.86732983  0.02921561  0.81477210     0.93300
O1060       O  0.84127191  0.05380425  0.81530404    -0.82800
O1061       O  0.54121771  0.14591405  0.98308938    -0.82300
C1062       C  0.48929739  0.18989101  0.86453297     0.97100
O1063       O  0.49444224  0.15591861  0.87329069    -0.71400
O1064       O  0.56033826  0.13386028  0.89413815    -0.75000
Al1065     Al  0.51162303  0.13377207  0.91190540     1.49000
C1066       C  0.59051166  0.13496810  0.90946926     0.92300
O1067       O  0.57559045  0.22414226  0.93095735    -0.81200
O1068       O  0.47526171  0.21970331  0.97082530    -0.74800
Al1069     Al  0.55719441  0.18491604  0.95622629     1.90100
O1070       O  0.52178683  0.25521706  0.92735874    -0.73900
O1071       O  0.43964632  0.18389460  0.92558540    -0.73700
O1072       O  0.48778355  0.21649438  0.88395948    -0.79400
O1073       O  0.46267239  0.12619357  0.92683745    -0.77600
O1074       O  0.51738273  0.17798360  0.93153080    -1.13700
O1075       O  0.52817535  0.10362015  0.94677608    -0.72900
C1076       C  0.53576885  0.11189396  0.97476194     0.97800
C1077       C  0.55742619  0.25405910  0.92464819     0.94200
Al1078     Al  0.48387856  0.21557956  0.92729912     1.55600
O1079       O  0.59138338  0.15101628  0.93554941    -0.77500
C1080       C  0.43516873  0.14850613  0.92825200     0.98400
C1081       C  0.50069904  0.22808714  0.99006696     0.93300
O1082       O  0.53464400  0.22096287  0.98405317    -0.82800
O1083       O  0.53588174  0.24993167  0.73288737    -0.82300
C1084       C  0.48840386  0.28282491  0.61462895     0.97100
O1085       O  0.48871000  0.25546919  0.63337833    -0.71400
O1086       O  0.52195777  0.21555868  0.67669295    -0.75000
Al1087     Al  0.48441489  0.25600835  0.67672607     1.49000
C1088       C  0.55746322  0.21673928  0.67305444     0.92300
O1089       O  0.59199593  0.31948220  0.68338263    -0.81200
O1090       O  0.53126986  0.36739541  0.69663289    -0.74800
Al1091     Al  0.55844145  0.28573933  0.70497073     1.90100
O1092       O  0.55925535  0.33590888  0.64268537    -0.73900
O1093       O  0.46422777  0.34564486  0.67954515    -0.73700
O1094       O  0.49187353  0.31667714  0.62420101    -0.79400
O1095       O  0.44025711  0.28860531  0.67475499    -0.77600
O1096       O  0.51804529  0.29321831  0.68119931    -1.13700
O1097       O  0.47611769  0.25190444  0.72034091    -0.72900
C1098       C  0.50191700  0.24324019  0.73927628     0.97800
C1099       C  0.59010927  0.33501134  0.65706346     0.94200
Al1100     Al  0.51190520  0.33764141  0.66235090     1.55600
O1101       O  0.57573380  0.24661221  0.67899014    -0.77500
C1102       C  0.43624445  0.32394997  0.67893091     0.98400
C1103       C  0.53945020  0.35896115  0.72445823     0.93300
O1104       O  0.54390368  0.32477964  0.73265761    -0.82800
O1105       O  0.14248825  0.92964905  0.71896762    -0.82300
C1106       C  0.19639097  0.98445781  0.60655057     0.97100
O1107       O  0.16153920  0.98357092  0.61276017    -0.71400
O1108       O  0.13626183  0.91729241  0.62893710    -0.75000
Al1109     Al  0.13591885  0.96474616  0.64927432     1.49000
C1110       C  0.13630726  0.88583130  0.64252471     0.92300
O1111       O  0.22283006  0.89666227  0.66962150    -0.81200
O1112       O  0.21652019  0.99546379  0.71439427    -0.74800
Al1113     Al  0.18236598  0.91446659  0.69362384     1.90100
O1114       O  0.25486829  0.95004502  0.67159623    -0.73900
O1115       O  0.18624837  0.03481225  0.66873817    -0.73700
O1116       O  0.22061361  0.98595176  0.62780517    -0.79400
O1117       O  0.12872036  0.01279135  0.66649764    -0.77600
O1118       O  0.17802453  0.95628544  0.67094428    -1.13700
O1119       O  0.10283216  0.94650710  0.68177321    -0.72900
C1120       C  0.10953345  0.93711642  0.70971119     0.97800
C1121       C  0.25327804  0.91455994  0.66616502     0.94200
Al1122     Al  0.21624999  0.98910354  0.67054956     1.55600
O1123       O  0.15007567  0.88273489  0.66933065    -0.77500
C1124       C  0.15119106  0.03965796  0.67094759     0.98400
C1125       C  0.22333663  0.96819732  0.73243380     0.93300
O1126       O  0.21574007  0.93468366  0.72429214    -0.82800
O1127       O  0.27497405  0.93812490  0.97771311    -0.82300
C1128       C  0.28696256  0.98481438  0.85476738     0.97100
O1129       O  0.26808067  0.00279763  0.87489820    -0.71400
O1130       O  0.22333225  0.95438172  0.90287948    -0.75000
Al1131     Al  0.25886866  0.99082142  0.91781265     1.49000
C1132       C  0.21888010  0.92006793  0.91048975     0.92300
O1133       O  0.30854646  0.88249608  0.90827780    -0.81200
O1134       O  0.36810615  0.96834694  0.93959772    -0.74800
Al1135     Al  0.29216266  0.91404729  0.94147163     1.90100
O1136       O  0.35604492  0.91690929  0.89433339    -0.73900
O1137       O  0.33706710  0.02091118  0.90286205    -0.73700
O1138       O  0.31580615  0.96582260  0.86247590    -0.79400
O1139       O  0.28937091  0.03199256  0.93320826    -0.77600
O1140       O  0.29681078  0.95724817  0.92051769    -1.13700
O1141       O  0.24147556  0.98516332  0.95925480    -0.72900
C1142       C  0.25180819  0.96474749  0.98167023     0.97800
C1143       C  0.33967894  0.88547241  0.89480697     0.94200
Al1144     Al  0.34027046  0.96729458  0.90141897     1.55600
O1145       O  0.24259547  0.90322632  0.92742469    -0.77500
C1146       C  0.31981984  0.04247180  0.92107480     0.98400
C1147       C  0.36751810  0.94162031  0.95928191     0.93300
O1148       O  0.34141777  0.91712381  0.95940043    -0.82800
O1149       O  0.43644207  0.64395665  0.79334431    -0.82300
C1150       C  0.48859012  0.69720082  0.90805269     0.97100
O1151       O  0.48323156  0.66235594  0.90210122    -0.71400
O1152       O  0.41854126  0.63615627  0.88281376    -0.75000
Al1153     Al  0.46721669  0.63635089  0.86473500     1.49000
C1154       C  0.38836645  0.63485425  0.86757151     0.92300
O1155       O  0.40061800  0.72239608  0.84396702    -0.81200
O1156       O  0.49842484  0.71905539  0.79963020    -0.74800
Al1157     Al  0.41928590  0.68301938  0.81910181     1.90100
O1158       O  0.45351152  0.75544361  0.84438972    -0.73900
O1159       O  0.53812226  0.68623023  0.84395379    -0.73700
O1160       O  0.49212655  0.72076996  0.88651850    -0.79400
O1161       O  0.51625344  0.62876246  0.85058890    -0.77600
O1162       O  0.46019801  0.67867394  0.84278221    -1.13700
O1163       O  0.45171165  0.60352877  0.83075416    -0.72900
C1164       C  0.44373065  0.61062881  0.80251968     0.97800
C1165       C  0.41814165  0.75301362  0.84905419     0.94200
Al1166     Al  0.49300323  0.71703389  0.84360938     1.55600
O1167       O  0.38708831  0.64868498  0.84077023    -0.77500
C1168       C  0.54300015  0.65072904  0.84476809     0.98400
C1169       C  0.47126498  0.72715873  0.78200560     0.93300
O1170       O  0.43833993  0.71873043  0.78993228    -0.82800
O1171       O  0.44282777  0.77777256  0.53523810    -0.82300
C1172       C  0.48537744  0.79157065  0.66009339     0.97100
O1173       O  0.50239053  0.77109295  0.64049131    -0.71400
O1174       O  0.45519645  0.72625265  0.61130183    -0.75000
Al1175     Al  0.49221196  0.76137967  0.59742730     1.49000
C1176       C  0.42178104  0.72107253  0.60220973     0.92300
O1177       O  0.38456746  0.81031535  0.60362146    -0.81200
O1178       O  0.46926028  0.87181320  0.57391367    -0.74800
Al1179     Al  0.41699870  0.79441989  0.57097372     1.90100
O1180       O  0.41758781  0.85881402  0.61876869    -0.73900
O1181       O  0.52139311  0.84164216  0.61124225    -0.73700
O1182       O  0.46685729  0.82051712  0.65165508    -0.79400
O1183       O  0.53468522  0.79106419  0.58405004    -0.77600
O1184       O  0.45917384  0.79978379  0.59326956    -1.13700
O1185       O  0.48815621  0.74350060  0.55573236    -0.72900
C1186       C  0.46932961  0.75423197  0.53249610     0.97800
C1187       C  0.38684012  0.84138527  0.61794002     0.94200
Al1188     Al  0.46818061  0.84413431  0.61223755     1.55600
O1189       O  0.40608809  0.74419647  0.58403667    -0.77500
C1190       C  0.54458092  0.82207585  0.59624729     0.98400
C1191       C  0.44299545  0.87061671  0.55391501     0.93300
O1192       O  0.41927565  0.84390715  0.55352923    -0.82800
O1193       O  0.03379856  0.71782483  0.53853745    -0.82300
C1194       C  0.98938925  0.69080534  0.65813643     0.97100
O1195       O  0.98832437  0.71725737  0.63861159    -0.71400
O1196       O  0.02059217  0.75520549  0.59431336    -0.75000
Al1197     Al  0.98352406  0.71468755  0.59526803     1.49000
C1198       C  0.05626116  0.75468768  0.59715409     0.92300
O1199       O  0.09166844  0.65181542  0.59005821    -0.81200
O1200       O  0.03206652  0.60244905  0.57911436    -0.74800
Al1201     Al  0.05729787  0.68396730  0.56742208     1.90100
O1202       O  0.06010302  0.63797600  0.63168100    -0.73900
O1203       O  0.96514695  0.62488014  0.59527862    -0.73700
O1204       O  0.99288087  0.65663833  0.64950941    -0.79400
O1205       O  0.93991760  0.68170051  0.59746193    -0.77600
O1206       O  0.01762308  0.67760155  0.59178616    -1.13700
O1207       O  0.97445411  0.71710720  0.55180335    -0.72900
C1208       C  0.99974753  0.72479365  0.53251367     0.97800
C1209       C  0.09051860  0.63793258  0.61699213     0.94200
Al1210     Al  0.01263702  0.63416964  0.61222419     1.55600
O1211       O  0.07476547  0.72482493  0.59150687    -0.77500
C1212       C  0.93685802  0.64622391  0.59356653     0.98400
C1213       C  0.03908935  0.60939187  0.55088169     0.93300
O1214       O  0.04246814  0.64318476  0.54142475    -0.82800
O1215       O  0.04238483  0.82551464  0.79288468    -0.82300
C1216       C  0.98654118  0.77946636  0.90825295     0.97100
O1217       O  0.99052301  0.81382097  0.90007307    -0.71400
O1218       O  0.05719071  0.83711130  0.88266892    -0.75000
Al1219     Al  0.00950011  0.83693118  0.86259283     1.49000
C1220       C  0.08801446  0.83673717  0.86849926     0.92300
O1221       O  0.07551211  0.74758947  0.84567341    -0.81200
O1222       O  0.97681697  0.75279507  0.80166733    -0.74800
Al1223     Al  0.05778823  0.78680806  0.82000662     1.90100
O1224       O  0.02230287  0.71555533  0.84572548    -0.73900
O1225       O  0.93896025  0.78632141  0.84670528    -0.73700
O1226       O  0.98684846  0.75312357  0.88858216    -0.79400
O1227       O  0.96148678  0.84407463  0.84533899    -0.77600
O1228       O  0.01690677  0.79306319  0.84301140    -1.13700
O1229       O  0.02740504  0.86779759  0.82861463    -0.72900
C1230       C  0.03548488  0.85933585  0.80080402     0.97800
C1231       C  0.05773340  0.71714011  0.85033468     0.94200
Al1232     Al  0.98386096  0.75513225  0.84544951     1.55600
O1233       O  0.09023199  0.82090009  0.84237400    -0.77500
C1234       C  0.93419681  0.82164593  0.84351426     0.98400
C1235       C  0.00311740  0.74496477  0.78328583     0.93300
O1236       O  0.03685171  0.75104360  0.79100703    -0.82800
O1237       O  0.32993055  0.54472554  0.72130826    -0.82300
C1238       C  0.27990440  0.49078013  0.60641390     0.97100
O1239       O  0.31444734  0.49471570  0.61309250    -0.71400
O1240       O  0.33802118  0.56084650  0.63175386    -0.75000
Al1241     Al  0.33890016  0.51227784  0.65056856     1.49000
C1242       C  0.33808853  0.59167814  0.64634343     0.92300
O1243       O  0.25127132  0.57770935  0.66917475    -0.81200
O1244       O  0.25733737  0.47881782  0.71375956    -0.74800
Al1245     Al  0.29065266  0.56024754  0.69481432     1.90100
O1246       O  0.21960998  0.52375276  0.66958879    -0.73900
O1247       O  0.29025348  0.44020604  0.66936944    -0.73700
O1248       O  0.25565021  0.48748481  0.62723608    -0.79400
O1249       O  0.34722719  0.46330443  0.66588965    -0.77600
O1250       O  0.29637056  0.51890048  0.67160503    -1.13700
O1251       O  0.37046703  0.52928312  0.68453953    -0.72900
C1252       C  0.36312428  0.53741307  0.71259047     0.97800
C1253       C  0.22147187  0.55919363  0.66394918     0.94200
Al1254     Al  0.25895172  0.48514470  0.67005429     1.55600
O1255       O  0.32373400  0.59350906  0.67284589    -0.77500
C1256       C  0.32551166  0.43588586  0.67037503     0.98400
C1257       C  0.24940787  0.50560373  0.73188391     0.93300
O1258       O  0.25591673  0.53937598  0.72393788    -0.82800
O1259       O  0.20333881  0.53282754  0.97625379    -0.82300
C1260       C  0.18840326  0.48577953  0.85420094     0.97100
O1261       O  0.20895497  0.46807316  0.87359545    -0.71400
O1262       O  0.25415659  0.51638948  0.90169944    -0.75000
Al1263     Al  0.21930423  0.47958821  0.91665584     1.49000
C1264       C  0.25866478  0.55064129  0.90941834     0.92300
O1265       O  0.16850782  0.58622757  0.90617447    -0.81200
O1266       O  0.11072692  0.50046092  0.94079424    -0.74800
Al1267     Al  0.18564008  0.55614483  0.94000071     1.90100
O1268       O  0.11964478  0.55192056  0.89477735    -0.73900
O1269       O  0.14059884  0.44776989  0.90350735    -0.73700
O1270       O  0.15888903  0.50296158  0.86257131    -0.79400
O1271       O  0.19043173  0.43765278  0.93204377    -0.77600
O1272       O  0.18083396  0.51243044  0.91977752    -1.13700
O1273       O  0.23700517  0.48555546  0.95831602    -0.72900
C1274       C  0.22632328  0.50610423  0.98055471     0.97800
C1275       C  0.13646467  0.58319754  0.89388504     0.94200
Al1276     Al  0.13651546  0.50145519  0.90188102     1.55600
O1277       O  0.23492054  0.56739773  0.92609860    -0.77500
C1278       C  0.15955782  0.42649653  0.92091952     0.98400
C1279       C  0.11157407  0.52821213  0.95955446     0.93300
O1280       O  0.13694510  0.55335814  0.95818482    -0.82800
C1281       C  0.23156901  0.49840461  0.76220955    -0.06000
C1282       C  0.21230057  0.52832205  0.77675292    -0.33400
C1283       C  0.19689163  0.52381153  0.80614720     0.35900
C1284       C  0.20051199  0.48884802  0.82172948    -0.06300
C1285       C  0.21898945  0.45853969  0.80708728    -0.33300
C1286       C  0.23416517  0.46298303  0.77736241     0.35800
H1287       H  0.20961817  0.55570810  0.76550388     0.16100
O1288       O  0.17980552  0.55440265  0.81999185    -0.60800
H1289       H  0.22210551  0.43156043  0.81889308     0.16100
O1290       O  0.25221630  0.43286077  0.76376968    -0.60900
H1291       H  0.27894637  0.43524163  0.77027720     0.43100
H1292       H  0.19969706  0.56645519  0.83287583     0.43100
C1293       C  0.26637986  0.49244854  0.57403223    -0.06000
C1294       C  0.28859861  0.47938407  0.54940862    -0.33400
C1295       C  0.27552638  0.48219141  0.51868302     0.35900
C1296       C  0.24035509  0.49937693  0.51236493    -0.06300
C1297       C  0.21835025  0.51226067  0.53708897    -0.33300
C1298       C  0.23081362  0.50871646  0.56754904     0.35800
H1299       H  0.31599566  0.46694914  0.55398945     0.16100
O1300       O  0.29804014  0.46968347  0.99505134    -0.60800
H1301       H  0.19123118  0.52553434  0.53285731     0.16100
O1302       O  0.20881487  0.52340920  0.59073002    -0.60900
H1303       H  0.18898606  0.50414103  0.59436921     0.43100
H1304       H  0.29190284  0.44238247  0.99257851     0.43100
C1305       C  0.07873383  0.68284451  0.86036968    -0.06000
C1306       C  0.06170204  0.64704491  0.85789297    -0.33400
C1307       C  0.08070907  0.61420088  0.86734179     0.35900
C1308       C  0.11739487  0.61672391  0.88013817    -0.06300
C1309       C  0.13479604  0.65241836  0.88182347    -0.33300
C1310       C  0.11587255  0.68522768  0.87218037     0.35800
H1311       H  0.03345246  0.64437826  0.84852354     0.16100
O1312       O  0.06259095  0.57997309  0.86460798    -0.60800
H1313       H  0.16292856  0.65518158  0.89140969     0.16100
O1314       O  0.13391096  0.71949866  0.87492970    -0.60900
H1315       H  0.12665358  0.72941851  0.89558117     0.43100
H1316       H  0.07076058  0.56951051  0.84437217     0.43100
C1317       C  0.18825369  0.57948305  0.65188317    -0.06000
C1318       C  0.15258485  0.57091030  0.66352586    -0.33400
C1319       C  0.12075804  0.59077834  0.65327030     0.35900
C1320       C  0.12419759  0.61916821  0.63033140    -0.06300
C1321       C  0.15998177  0.62727298  0.61834934    -0.33300
C1322       C  0.19187612  0.60779463  0.62905042     0.35800
H1323       H  0.14942417  0.54905897  0.68098782     0.16100
O1324       O  0.08624153  0.58095064  0.66486090    -0.60800
H1325       H  0.16324819  0.64857580  0.60046143     0.16100
O1326       O  0.22636435  0.61608253  0.61660956    -0.60900
H1327       H  0.22824473  0.60010150  0.59773857     0.43100
H1328       H  0.08452763  0.59414933  0.68512225     0.43100
C1329       C  0.08211258  0.53438987  0.98269023    -0.06000
C1330       C  0.09129745  0.52839472  0.51396757    -0.33400
C1331       C  0.07399892  0.54993970  0.53726103     0.35900
C1332       C  0.04751379  0.57817499  0.52914056    -0.06300
C1333       C  0.03535277  0.58100663  0.49823063    -0.33300
C1334       C  0.05231874  0.55909620  0.97505934     0.35800
H1335       H  0.11476420  0.51007516  0.02005162     0.16100
O1336       O  0.08632598  0.54623264  0.56732290    -0.60800
H1337       H  0.01484736  0.60242692  0.49168860     0.16100
O1338       O  0.04254035  0.56508607  0.94462681    -0.60900
H1339       H  0.05742061  0.58744048  0.93799717     0.43100
H1340       H  0.10836384  0.56339507  0.56919800     0.43100
C1341       C  0.98819907  0.70064959  0.69147326    -0.06000
C1342       C  0.96750099  0.73257495  0.70120944    -0.33400
C1343       C  0.97040243  0.74599710  0.73172328     0.35900
C1344       C  0.99516865  0.72820049  0.75268296    -0.06300
C1345       C  0.01509990  0.69576006  0.74330820    -0.33300
C1346       C  0.01126679  0.68153741  0.71312780     0.35800
H1347       H  0.94982453  0.74779844  0.68484547     0.16100
O1348       O  0.95134234  0.77830753  0.74007383    -0.60800
H1349       H  0.03435586  0.68189817  0.75928859     0.16100
O1350       O  0.03263295  0.65091455  0.70437214    -0.60900
H1351       H  0.01674622  0.62840410  0.70861466     0.43100
H1352       H  0.92719706  0.76927311  0.74880683     0.43100
C1353       C  0.99034577  0.74230904  0.50262740    -0.06000
C1354       C  0.96893699  0.72201791  0.98099017    -0.33400
C1355       C  0.96595880  0.73475431  0.95035116     0.35900
C1356       C  0.98345110  0.76906245  0.94134837    -0.06300
C1357       C  0.00246075  0.79073819  0.96380199    -0.33300
C1358       C  0.00662507  0.77716201  0.49412558     0.35800
H1359       H  0.95651903  0.69504165  0.98733346     0.16100
O1360       O  0.94659639  0.71301217  0.92921667    -0.60800
H1361       H  0.01626666  0.81697366  0.95737647     0.16100
O1362       O  0.02724208  0.79775937  0.51521253    -0.60900
H1363       H  0.05378105  0.78999965  0.51191356     0.43100
H1364       H  0.96421719  0.69237738  0.92331016     0.43100
C1365       C  0.40022801  0.68776420  0.61304000    -0.06000
C1366       C  0.36224588  0.69207399  0.62151653    -0.33400
C1367       C  0.34141223  0.66099334  0.63233791     0.35900
C1368       C  0.35811471  0.62476867  0.63364162    -0.06300
C1369       C  0.39575179  0.62034492  0.62458626    -0.33300
C1370       C  0.41699226  0.65159994  0.61492294     0.35800
H1371       H  0.34897270  0.71978835  0.62039343     0.16100
O1372       O  0.30490472  0.66628440  0.64163870    -0.60800
H1373       H  0.40908156  0.59267040  0.62590139     0.16100
O1374       O  0.45378606  0.64628831  0.60645448    -0.60900
H1375       H  0.46843693  0.64779370  0.62606055     0.43100
H1376       H  0.28947191  0.66311010  0.62259026     0.43100
C1377       C  0.29201580  0.57197533  0.89893929    -0.06000
C1378       C  0.28715488  0.60737899  0.88451351    -0.33400
C1379       C  0.31830328  0.62834471  0.87441901     0.35900
C1380       C  0.35509328  0.61481194  0.87997899    -0.06300
C1381       C  0.35993190  0.57991548  0.89530351    -0.33300
C1382       C  0.32871391  0.55823632  0.90427012     0.35800
H1383       H  0.25904241  0.61845091  0.88052138     0.16100
O1384       O  0.31253796  0.66247293  0.85982837    -0.60800
H1385       H  0.38800646  0.56886027  0.89946601     0.16100
O1386       O  0.33435454  0.52431431  0.91920018    -0.60900
H1387       H  0.33533675  0.50498123  0.90249364     0.43100
H1388       H  0.30788215  0.65597698  0.83776007     0.43100
C1389       C  0.43678739  0.57979929  0.78045152    -0.06000
C1390       C  0.41091933  0.55177593  0.78903843    -0.33400
C1391       C  0.38872827  0.53402292  0.76644617     0.35900
C1392       C  0.39378569  0.54314606  0.73498519    -0.06300
C1393       C  0.42411069  0.56612116  0.72627697    -0.33300
C1394       C  0.44526290  0.58504893  0.74890462     0.35800
H1395       H  0.40418858  0.54746928  0.81325994     0.16100
O1396       O  0.36025082  0.51015973  0.77536235    -0.60800
H1397       H  0.42842334  0.57316283  0.70210078     0.16100
O1398       O  0.47167965  0.61127870  0.74007605    -0.60900
H1399       H  0.45716967  0.63378352  0.73297115     0.43100
H1400       H  0.33983367  0.52698624  0.78294298     0.43100
C1401       C  0.47709480  0.74720023  0.75230462    -0.06000
C1402       C  0.51053435  0.74211256  0.73561347    -0.33400
C1403       C  0.51459525  0.75802553  0.70603067     0.35900
C1404       C  0.48515019  0.77983591  0.69295794    -0.06300
C1405       C  0.45291217  0.78708251  0.71059881    -0.33300
C1406       C  0.44853981  0.77070680  0.73982946     0.35800
H1407       H  0.53296369  0.72458167  0.74498657     0.16100
O1408       O  0.54704083  0.75129547  0.68982082    -0.60800
H1409       H  0.43005708  0.80395717  0.70108431     0.16100
O1410       O  0.41624755  0.77808831  0.75611276    -0.60900
H1411       H  0.39690833  0.76095610  0.74711561     0.43100
H1412       H  0.56348105  0.77338455  0.69433124     0.43100
C1413       C  0.48841735  0.71178727  0.94044678    -0.06000
C1414       C  0.48801559  0.68657715  0.96570710    -0.33400
C1415       C  0.48342782  0.70012060  0.49609752     0.35900
C1416       C  0.47823697  0.73925221  0.50148335    -0.06300
C1417       C  0.47968145  0.76448990  0.97655904    -0.33300
C1418       C  0.48506457  0.75131122  0.94639033     0.35800
H1419       H  0.49034608  0.65625597  0.96186930     0.16100
O1420       O  0.48143887  0.67468002  0.52007357    -0.60800
H1421       H  0.47614457  0.79471078  0.98045987     0.16100
O1422       O  0.48600990  0.77752825  0.92288289    -0.60900
H1423       H  0.45929342  0.78192805  0.91703806     0.43100
H1424       H  0.50760429  0.67233066  0.52798949     0.43100
C1425       C  0.18548497  0.89878883  0.89971192    -0.06000
C1426       C  0.14928384  0.91337018  0.90480289    -0.33400
C1427       C  0.11726100  0.89259828  0.89601894     0.35900
C1428       C  0.12119804  0.85701349  0.88123340    -0.06300
C1429       C  0.15751301  0.84268664  0.87591059    -0.33300
C1430       C  0.18946212  0.86294764  0.88554104     0.35800
H1431       H  0.14584070  0.94072519  0.91598202     0.16100
O1432       O  0.08229361  0.90783947  0.90125780    -0.60800
H1433       H  0.16112289  0.81567370  0.86422346     0.16100
O1434       O  0.22454900  0.84827133  0.87977361    -0.60900
H1435       H  0.22999223  0.83106616  0.89743503     0.43100
H1436       H  0.07567057  0.92162466  0.88193009     0.43100
C1437       C  0.35844705  0.85196135  0.88093637    -0.06000
C1438       C  0.34236215  0.81581312  0.88416463    -0.33400
C1439       C  0.36118946  0.78336977  0.87364079     0.35900
C1440       C  0.39697252  0.78666444  0.85977521    -0.06300
C1441       C  0.41271030  0.82279381  0.85602159    -0.33300
C1442       C  0.39387404  0.85520925  0.86632162     0.35800
H1443       H  0.31539951  0.81248361  0.89546188     0.16100
O1444       O  0.34502751  0.74850424  0.87832725    -0.60800
H1445       H  0.43985872  0.82606967  0.84500742     0.16100
O1446       O  0.41047451  0.88990599  0.86177961    -0.60900
H1447       H  0.42873922  0.89279782  0.87909783     0.43100
H1448       H  0.32737325  0.74498904  0.86066028     0.43100
C1449       C  0.39797481  0.93647193  0.98209640    -0.06000
C1450       C  0.39159440  0.94740530  0.51288266    -0.33400
C1451       C  0.41123162  0.92982132  0.53724469     0.35900
C1452       C  0.43737686  0.90075958  0.53083827    -0.06300
C1453       C  0.44658976  0.89278928  0.49994973    -0.33300
C1454       C  0.42691768  0.91033390  0.97559496     0.35800
H1455       H  0.36860747  0.96658553  0.51821483     0.16100
O1456       O  0.40056932  0.93711459  0.56718574    -0.60800
H1457       H  0.46588429  0.86979619  0.49472775     0.16100
O1458       O  0.43317328  0.89860340  0.94571298    -0.60900
H1459       H  0.41733017  0.87566923  0.94285722     0.43100
H1460       H  0.42153773  0.95201157  0.57634269     0.43100
C1461       C  0.11760386  0.85299460  0.62817551    -0.06000
C1462       C  0.08110930  0.85727260  0.61603812    -0.33400
C1463       C  0.06063982  0.82567319  0.60575224     0.35900
C1464       C  0.07698508  0.78913446  0.60706292    -0.06300
C1465       C  0.11410799  0.78531165  0.61825255    -0.33300
C1466       C  0.13412809  0.81677875  0.62915921     0.35800
H1467       H  0.06789494  0.88504469  0.61561306     0.16100
O1468       O  0.02456405  0.83084441  0.59502208    -0.60800
H1469       H  0.12746741  0.75764836  0.61932008     0.16100
O1470       O  0.17008544  0.81197593  0.64026607    -0.60900
H1471       H  0.16712298  0.80396518  0.66214803     0.43100
H1472       H  0.02722404  0.83686133  0.57269899     0.43100
C1473       C  0.04154129  0.88918789  0.77768393    -0.06000
C1474       C  0.06434224  0.92009551  0.78582538    -0.33400
C1475       C  0.08341157  0.94022251  0.76289608     0.35900
C1476       C  0.07889245  0.92994085  0.73153188    -0.06300
C1477       C  0.05154035  0.90309575  0.72324672    -0.33300
C1478       C  0.03311415  0.88234920  0.74620387     0.35800
H1479       H  0.07109699  0.92559797  0.80995209     0.16100
O1480       O  0.11004706  0.96640424  0.77154490    -0.60800
H1481       H  0.04802561  0.89476249  0.69920638     0.16100
O1482       O  0.01048406  0.85253168  0.73764749    -0.60900
H1483       H  0.98437885  0.86155211  0.74109144     0.43100
H1484       H  0.09768978  0.99144991  0.76874803     0.43100
C1485       C  0.21016275  0.98116537  0.57432655    -0.06000
C1486       C  0.18888178  0.99443704  0.54902417    -0.33400
C1487       C  0.20225167  0.99017255  0.51857888     0.35900
C1488       C  0.23700867  0.97171592  0.51318450    -0.06300
C1489       C  0.25781784  0.95818109  0.53853085    -0.33300
C1490       C  0.24488341  0.96276056  0.56869269     0.35800
H1491       H  0.16194909  0.00811185  0.55284296     0.16100
O1492       O  0.18035005  0.00255193  0.99431627    -0.60800
H1493       H  0.28438954  0.94362824  0.53503977     0.16100
O1494       O  0.26549816  0.94696089  0.59242472    -0.60900
H1495       H  0.28620527  0.96515916  0.59662294     0.43100
H1496       H  0.18745888  0.02950313  0.99126761     0.43100
C1497       C  0.24172709  0.97455976  0.76271088    -0.06000
C1498       C  0.23376919  0.00720188  0.78018901    -0.33400
C1499       C  0.24938104  0.01189708  0.80988782     0.35900
C1500       C  0.27380296  0.98394903  0.82220681    -0.06300
C1501       C  0.28309927  0.95235434  0.80394556    -0.33300
C1502       C  0.26702352  0.94731633  0.77466979     0.35800
H1503       H  0.21452333  0.02848704  0.77121648     0.16100
O1504       O  0.23997258  0.04346721  0.82682374    -0.60800
H1505       H  0.30177438  0.93051363  0.81285578     0.16100
O1506       O  0.27675958  0.91586130  0.75766540    -0.60900
H1507       H  0.26084347  0.89501562  0.76574365     0.43100
H1508       H  0.26083073  0.06166439  0.82345398     0.43100
C1509       C  0.28751708  0.89409441  0.65588219    -0.06000
C1510       C  0.32254344  0.91223526  0.65806583    -0.33400
C1511       C  0.35518638  0.89482738  0.64704740     0.35900
C1512       C  0.35329531  0.85865299  0.63279087    -0.06300
C1513       C  0.31844125  0.83994054  0.63151215    -0.33300
C1514       C  0.28584246  0.85714326  0.64312940     0.35800
H1515       H  0.32475108  0.94033161  0.66818192     0.16100
O1516       O  0.38855051  0.91419450  0.64955580    -0.60800
H1517       H  0.31620815  0.81209081  0.62096176     0.16100
O1518       O  0.25231328  0.83811163  0.64061596    -0.60900
H1519       H  0.25072553  0.82244815  0.65965529     0.43100
H1520       H  0.39934941  0.90642991  0.66984126     0.43100
C1521       C  0.39883063  0.34190703  0.68096571    -0.06000
C1522       C  0.39141775  0.36568040  0.70632514    -0.33400
C1523       C  0.36366960  0.39386921  0.70438656     0.35900
C1524       C  0.34300055  0.39874614  0.67675337    -0.06300
C1525       C  0.34796837  0.37282623  0.65237790    -0.33300
C1526       C  0.37583607  0.34450979  0.65431512     0.35800
H1527       H  0.40942018  0.36455225  0.72668182     0.16100
O1528       O  0.35983500  0.41920325  0.72834230    -0.60800
H1529       H  0.33289670  0.37687324  0.63071459     0.16100
O1530       O  0.38316428  0.32242084  0.62881793    -0.60900
H1531       H  0.40205202  0.33677683  0.61670633     0.43100
H1532       H  0.33819831  0.40973726  0.74051683     0.43100
C1533       C  0.39744145  0.13166615  0.93119727    -0.06000
C1534       C  0.38994852  0.10792643  0.95653798    -0.33400
C1535       C  0.36025521  0.08174094  0.95531660     0.35900
C1536       C  0.33789623  0.07893804  0.92839209    -0.06300
C1537       C  0.34350377  0.10484953  0.90413970    -0.33300
C1538       C  0.37288305  0.13135798  0.90551935     0.35800
H1539       H  0.40906774  0.10747946  0.97621125     0.16100
O1540       O  0.35596800  0.05619455  0.97903956    -0.60800
H1541       H  0.32739661  0.10206457  0.88284099     0.16100
O1542       O  0.38056373  0.15299834  0.87991600    -0.60900
H1543       H  0.36497018  0.17618743  0.88230167     0.43100
H1544       H  0.37429201  0.03556884  0.97478262     0.43100
C1545       C  0.49150891  0.24618565  0.51994286    -0.06000
C1546       C  0.50993699  0.27981795  0.52877729    -0.33400
C1547       C  0.50630288  0.29432032  0.55893360     0.35900
C1548       C  0.48528459  0.27413326  0.58109095    -0.06300
C1549       C  0.46520927  0.24167460  0.57160206    -0.33300
C1550       C  0.46773592  0.22804461  0.54117113     0.35800
H1551       H  0.52816434  0.29418226  0.51250446     0.16100
O1552       O  0.52612789  0.32620533  0.56716272    -0.60800
H1553       H  0.44870163  0.22588042  0.58822737     0.16100
O1554       O  0.44967618  0.19499288  0.53328839    -0.60900
H1555       H  0.42592578  0.20313131  0.52305543     0.43100
H1556       H  0.50831175  0.34760518  0.56408386     0.43100
C1557       C  0.49319281  0.22549970  0.76935418    -0.06000
C1558       C  0.46946663  0.24429746  0.79014356    -0.33400
C1559       C  0.46660450  0.23195771  0.82093735     0.35900
C1560       C  0.48671061  0.19952055  0.83108666    -0.06300
C1561       C  0.50804590  0.17898421  0.80945987    -0.33300
C1562       C  0.51189429  0.19214465  0.77894248     0.35800
H1563       H  0.45491258  0.26996111  0.78303700     0.16100
O1564       O  0.44445959  0.25213873  0.84107268    -0.60800
H1565       H  0.52364071  0.15400203  0.81668027     0.16100
O1566       O  0.53425882  0.17243313  0.75866257    -0.60900
H1567       H  0.56030606  0.18106045  0.76310717     0.43100
H1568       H  0.45979140  0.27443482  0.84728217     0.43100
C1569       C  0.89645662  0.83849075  0.83964889    -0.06000
C1570       C  0.87099290  0.83641108  0.86432283    -0.33400
C1571       C  0.84203061  0.86334569  0.86712874     0.35900
C1572       C  0.83774313  0.89198806  0.84461053    -0.06300
C1573       C  0.86044854  0.89120810  0.81816156    -0.33300
C1574       C  0.88995923  0.86495823  0.81573726     0.35800
H1575       H  0.87615359  0.81676627  0.88320611     0.16100
O1576       O  0.82114959  0.86432821  0.89375913    -0.60800
H1577       H  0.85812111  0.91370130  0.80111041     0.16100
O1578       O  0.91491610  0.86821436  0.79173962    -0.60900
H1579       H  0.90529839  0.85082525  0.77544479     0.43100
H1580       H  0.79736165  0.85104833  0.88847939     0.43100
C1581       C  0.68768989  0.07272402  0.87827960    -0.06000
C1582       C  0.69073184  0.11165353  0.88535232    -0.33400
C1583       C  0.65938294  0.13238713  0.89572271     0.35900
C1584       C  0.62408730  0.11456757  0.89808144    -0.06300
C1585       C  0.62100678  0.07581060  0.89091414    -0.33300
C1586       C  0.65255770  0.05474145  0.88171345     0.35800
H1587       H  0.71760494  0.12591130  0.88316631     0.16100
O1588       O  0.66345098  0.17002189  0.90325522    -0.60800
H1589       H  0.59409843  0.06160978  0.89309049     0.16100
O1590       O  0.64839927  0.01690692  0.87495352    -0.60900
H1591       H  0.65090891  0.00366796  0.89514616     0.43100
H1592       H  0.65699958  0.18411762  0.88405223     0.43100
C1593       C  0.58301408  0.83746394  0.59358872    -0.06000
C1594       C  0.60470684  0.84098865  0.62078994    -0.33400
C1595       C  0.63288246  0.86875799  0.62323234     0.35900
C1596       C  0.63949429  0.89350949  0.59829396    -0.06300
C1597       C  0.62039086  0.88746946  0.57012164    -0.33300
C1598       C  0.59252020  0.85939910  0.56756637     0.35800
H1599       H  0.59723126  0.82479916  0.64120081     0.16100
O1600       O  0.65101231  0.87406403  0.65107727    -0.60800
H1601       H  0.62459732  0.90688243  0.55097661     0.16100
O1602       O  0.57126352  0.85731653  0.54098339    -0.60900
H1603       H  0.58098058  0.83480158  0.52973116     0.43100
H1604       H  0.63529631  0.89256279  0.66259987     0.43100
C1605       C  0.57836792  0.18297332  0.66228463    -0.06000
C1606       C  0.61078433  0.18807540  0.64429078    -0.33400
C1607       C  0.63180455  0.15690900  0.63408789     0.35900
C1608       C  0.62106531  0.11983416  0.64247221    -0.06300
C1609       C  0.58903411  0.11472718  0.66093275    -0.33300
C1610       C  0.56735169  0.14590290  0.67037970     0.35800
H1611       H  0.61958314  0.21638151  0.63768136     0.16100
O1612       O  0.66254288  0.16296808  0.61563086    -0.60800
H1613       H  0.57999928  0.08637471  0.66715278     0.16100
O1614       O  0.53607819  0.13986686  0.68819054    -0.60900
H1615       H  0.51550155  0.13436696  0.67320821     0.43100
H1616       H  0.68283688  0.17127488  0.62997240     0.43100
C1617       C  0.54312594  0.08162162  0.99750017    -0.06000
C1618       C  0.53623562  0.08873373  0.52898586    -0.33400
C1619       C  0.55521563  0.06805321  0.55189040     0.35900
C1620       C  0.58226336  0.04088295  0.54314248    -0.06300
C1621       C  0.58520635  0.03026021  0.51194022    -0.33300
C1622       C  0.56522168  0.05000685  0.98908265     0.35800
H1623       H  0.51890425  0.11267424  0.53578583     0.16100
O1624       O  0.55161068  0.07882723  0.58229958    -0.60800
H1625       H  0.60582022  0.00919336  0.50502584     0.16100
O1626       O  0.57210302  0.04188481  0.95854041    -0.60900
H1627       H  0.55299753  0.02261597  0.95272110     0.43100
H1628       H  0.53139014  0.06247209  0.59067532     0.43100
C1629       C  0.74796479  0.99653895  0.51256267    -0.06000
C1630       C  0.73792038  0.96514986  0.99440691    -0.33400
C1631       C  0.75278862  0.96053523  0.96468766     0.35900
C1632       C  0.77895523  0.98708812  0.95308608    -0.06300
C1633       C  0.79026562  0.01751506  0.97201070    -0.33300
C1634       C  0.77472732  0.02257369  0.50136625     0.35800
H1635       H  0.71725420  0.94505186  0.00275040     0.16100
O1636       O  0.74038055  0.93079533  0.94682388    -0.60800
H1637       H  0.80995397  0.03851358  0.96352939     0.16100
O1638       O  0.78526784  0.05358013  0.51864317    -0.60900
H1639       H  0.80632403  0.04457447  0.53193922     0.43100
H1640       H  0.75930500  0.91039421  0.94989845     0.43100
C1641       C  0.71449744  0.98642856  0.70110458    -0.06000
C1642       C  0.68881103  0.98253453  0.72562318    -0.33400
C1643       C  0.70059647  0.98727316  0.75652309     0.35900
C1644       C  0.73827154  0.99696220  0.76307805    -0.06300
C1645       C  0.76399751  0.99978813  0.73879361    -0.33300
C1646       C  0.75268169  0.99426756  0.70818768     0.35800
H1647       H  0.65941239  0.97666487  0.72082700     0.16100
O1648       O  0.67464114  0.98492786  0.77985522    -0.60800
H1649       H  0.79318086  0.00685545  0.74353631     0.16100
O1650       O  0.77896558  0.99903091  0.68533888    -0.60900
H1651       H  0.79172161  0.97405424  0.68343552     0.43100
H1652       H  0.67405326  0.95770175  0.78567419     0.43100
C1653       C  0.08367205  0.33682473  0.93328343    -0.06000
C1654       C  0.09131041  0.36160042  0.95800788    -0.33400
C1655       C  0.12087742  0.38778520  0.95621180     0.35900
C1656       C  0.14273860  0.38978077  0.92920418    -0.06300
C1657       C  0.13763339  0.36232859  0.90591528    -0.33300
C1658       C  0.10862148  0.33545309  0.90806930     0.35800
H1659       H  0.07225335  0.36296809  0.97751217     0.16100
O1660       O  0.12542074  0.41419117  0.97935315    -0.60800
H1661       H  0.15375849  0.36407054  0.88471412     0.16100
O1662       O  0.10167963  0.31172427  0.88346901    -0.60900
H1663       H  0.11473809  0.28765746  0.88876397     0.43100
H1664       H  0.10603760  0.43391465  0.97530126     0.43100
C1665       C  0.90059025  0.18457755  0.91311614    -0.06000
C1666       C  0.91464110  0.14820072  0.91957338    -0.33400
C1667       C  0.89542475  0.11578138  0.90957860     0.35900
C1668       C  0.86151360  0.11930108  0.89242587    -0.06300
C1669       C  0.84750810  0.15579576  0.88597896    -0.33300
C1670       C  0.86681022  0.18821780  0.89600194     0.35800
H1671       H  0.94052660  0.14480220  0.93271895     0.16100
O1672       O  0.91048026  0.08085721  0.91643511    -0.60800
H1673       H  0.82195608  0.15933317  0.87243573     0.16100
O1674       O  0.85281447  0.22331208  0.88826053    -0.60900
H1675       H  0.86567998  0.23025535  0.86872552     0.43100
H1676       H  0.89883338  0.07339128  0.93635982     0.43100
C1677       C  0.13480145  0.07657508  0.67917844    -0.06000
C1678       C  0.11232343  0.07798521  0.70574364    -0.33400
C1679       C  0.08459251  0.10579990  0.70885708     0.35900
C1680       C  0.07896069  0.13256294  0.68509424    -0.06300
C1681       C  0.10454421  0.13419690  0.66044180    -0.33300
C1682       C  0.13233995  0.10602885  0.65723594     0.35800
H1683       H  0.11376574  0.05522162  0.72262366     0.16100
O1684       O  0.06004954  0.10368216  0.73324107    -0.60800
H1685       H  0.10017734  0.15440672  0.64182953     0.16100
O1686       O  0.15399664  0.10513368  0.63101727    -0.60900
H1687       H  0.13842167  0.09195059  0.61518360     0.43100
H1688       H  0.06867185  0.12337354  0.74810415     0.43100
C1689       C  0.79051120  0.07905411  0.61916453    -0.06000
C1690       C  0.82646722  0.06794178  0.60934026    -0.33400
C1691       C  0.85861762  0.08713461  0.61979449     0.35900
C1692       C  0.85512053  0.11763009  0.64087294    -0.06300
C1693       C  0.81907468  0.12916606  0.65016476    -0.33300
C1694       C  0.78692886  0.11050448  0.63917570     0.35800
H1695       H  0.82967514  0.04414782  0.59361546     0.16100
O1696       O  0.89330788  0.07497633  0.61002941    -0.60800
H1697       H  0.81577793  0.15248470  0.66634739     0.16100
O1698       O  0.75226056  0.12195269  0.64949418    -0.60900
H1699       H  0.74563082  0.14426128  0.63654720     0.43100
H1700       H  0.90162901  0.05611770  0.62571138     0.43100
C1701       C  0.89772069  0.03582849  0.79261718    -0.06000
C1702       C  0.89196282  0.02625179  0.76137804    -0.33400
C1703       C  0.91003491  0.04672900  0.73788659     0.35900
C1704       C  0.93300208  0.07794800  0.74579063    -0.06300
C1705       C  0.94223850  0.08425889  0.77702892    -0.33300
C1706       C  0.92484435  0.06330134  0.80040145     0.35800
H1707       H  0.87056776  0.00566432  0.75512079     0.16100
O1708       O  0.90076925  0.03953877  0.70754153    -0.60800
H1709       H  0.96023808  0.10785810  0.78345260     0.16100
O1710       O  0.93109810  0.07294514  0.83083928    -0.60900
H1711       H  0.91436500  0.09497610  0.83487032     0.43100
H1712       H  0.91999760  0.02118413  0.70027830     0.43100
C1713       C  0.99062880  0.19997427  0.58313060    -0.06000
C1714       C  0.01342914  0.23016252  0.57317916    -0.33400
C1715       C  0.01128351  0.24342827  0.54256186     0.35900
C1716       C  0.98535219  0.22710650  0.52171895    -0.06300
C1717       C  0.96353596  0.19611938  0.53136197    -0.33300
C1718       C  0.96650077  0.18208819  0.56163246     0.35800
H1719       H  0.03211126  0.24422838  0.58946819     0.16100
O1720       O  0.03303949  0.27367837  0.03379129    -0.60800
H1721       H  0.94332045  0.18341932  0.51555552     0.16100
O1722       O  0.94324259  0.15313400  0.57068389    -0.60900
H1723       H  0.95741761  0.12949500  0.56619343     0.43100
H1724       H  0.01709809  0.29644496  0.53724447     0.43100
C1725       C  0.99045379  0.27081728  0.83296213    -0.06000
C1726       C  0.01261789  0.24012552  0.82279980    -0.33400
C1727       C  0.00910435  0.22610977  0.79249686     0.35900
C1728       C  0.98226254  0.24200182  0.77223798    -0.06300
C1729       C  0.96080644  0.27326176  0.78206996    -0.33300
C1730       C  0.96516153  0.28808746  0.81201432     0.35800
H1731       H  0.03190131  0.22624116  0.83873272     0.16100
O1732       O  0.02971850  0.19493728  0.78378781    -0.60800
H1733       H  0.93993305  0.28565027  0.76666920     0.16100
O1734       O  0.94216883  0.31720398  0.82139327    -0.60900
H1735       H  0.95631858  0.34074005  0.81672993     0.43100
H1736       H  0.05267909  0.20534770  0.77398516     0.43100
C1737       C  0.84245727  0.57368042  0.59362086    -0.06000
C1738       C  0.86908188  0.57073529  0.56986425    -0.33400
C1739       C  0.89794037  0.59734347  0.56725637     0.35900
C1740       C  0.90013986  0.62778641  0.58836950    -0.06300
C1741       C  0.87054972  0.63368019  0.60933906    -0.33300
C1742       C  0.84160902  0.60665968  0.61203852     0.35800
H1743       H  0.86978998  0.54560927  0.55530803     0.16100
O1744       O  0.92562629  0.59180429  0.54559124    -0.60800
H1745       H  0.87199668  0.65689326  0.62580601     0.16100
O1746       O  0.81575117  0.61025928  0.63531505    -0.60900
H1747       H  0.79387543  0.62324200  0.62560978     0.43100
H1748       H  0.94175951  0.57113602  0.55395442     0.43100
C1749       C  0.68771762  0.39416102  0.62323586    -0.06000
C1750       C  0.65159300  0.40487680  0.61333015    -0.33400
C1751       C  0.61976107  0.38495443  0.62322189     0.35900
C1752       C  0.62361333  0.35420272  0.64403547    -0.06300
C1753       C  0.65983553  0.34369360  0.65411185    -0.33300
C1754       C  0.69170370  0.36319724  0.64374918     0.35800
H1755       H  0.64802184  0.42859435  0.59759129     0.16100
O1756       O  0.58490370  0.39701283  0.61349823    -0.60800
H1757       H  0.66347571  0.32038538  0.67024098     0.16100
O1758       O  0.72655801  0.35218692  0.65433432    -0.60900
H1759       H  0.73260060  0.36986882  0.67156563     0.43100
H1760       H  0.58027890  0.38353415  0.59364462     0.43100
C1761       C  0.89623764  0.28686462  0.66659427    -0.06000
C1762       C  0.86289561  0.28226601  0.64932947    -0.33400
C1763       C  0.84257592  0.31380080  0.63884760     0.35900
C1764       C  0.85508188  0.35069613  0.64610785    -0.06300
C1765       C  0.88765757  0.35532842  0.66429096    -0.33300
C1766       C  0.90838046  0.32377746  0.67431987     0.35800
H1767       H  0.85304131  0.25410157  0.64322818     0.16100
O1768       O  0.81092942  0.30824076  0.62103630    -0.60800
H1769       H  0.89789092  0.38354197  0.66976394     0.16100
O1770       O  0.94058950  0.32941097  0.69140065    -0.60900
H1771       H  0.93267364  0.32742005  0.71334510     0.43100
H1772       H  0.78977006  0.30762340  0.63593121     0.43100
C1773       C  0.89423379  0.42838833  0.54383468    -0.06000
C1774       C  0.88927932  0.43799791  0.51251664    -0.33400
C1775       C  0.90977417  0.41932820  0.98949516     0.35900
C1776       C  0.93491176  0.39004845  0.99784864    -0.06300
C1777       C  0.94324361  0.38387776  0.52928563    -0.33300
C1778       C  0.92325506  0.40311444  0.55233760     0.35800
H1779       H  0.86698493  0.45740170  0.50572150     0.16100
O1780       O  0.90070778  0.42577288  0.95899592    -0.60800
H1781       H  0.96265445  0.36150380  0.53596994     0.16100
O1782       O  0.92911573  0.39354022  0.58281744    -0.60900
H1783       H  0.91237699  0.37139951  0.58666796     0.43100
H1784       H  0.91911886  0.44494226  0.95184567     0.43100
C1785       C  0.63864471  0.57910184  0.84441366    -0.06000
C1786       C  0.61323895  0.57797193  0.81946292    -0.33400
C1787       C  0.58387108  0.60445908  0.81731441     0.35900
C1788       C  0.58020453  0.63313202  0.83990028    -0.06300
C1789       C  0.60810094  0.63679466  0.86288591    -0.33300
C1790       C  0.63709146  0.60973343  0.86538718     0.35800
H1791       H  0.61365096  0.55412588  0.80354386     0.16100
O1792       O  0.55701453  0.60029042  0.79454846    -0.60800
H1793       H  0.60514711  0.65814114  0.88082534     0.16100
O1794       O  0.66102140  0.61095384  0.89042718    -0.60900
H1795       H  0.68460230  0.62227964  0.88246634     0.43100
H1796       H  0.53961799  0.58046909  0.80227335     0.43100
C1797       C  0.61960289  0.35216829  0.89450257    -0.06000
C1798       C  0.58406194  0.35642181  0.90840365    -0.33400
C1799       C  0.56340445  0.32487959  0.91811281     0.35900
C1800       C  0.57836790  0.28809136  0.91453158    -0.06300
C1801       C  0.61420006  0.28377955  0.90128730    -0.33300
C1802       C  0.63470030  0.31530849  0.89121258     0.35800
H1803       H  0.57173287  0.38435711  0.91132948     0.16100
O1804       O  0.52904847  0.33050383  0.93177880    -0.60800
H1805       H  0.62616336  0.25571234  0.89814148     0.16100
O1806       O  0.66872470  0.30946901  0.87709529    -0.60900
H1807       H  0.68762829  0.31028884  0.89409047     0.43100
H1808       H  0.51090029  0.33309533  0.91434126     0.43100
C1809       C  0.58184970  0.43345105  0.79360351    -0.06000
C1810       C  0.59041197  0.44004684  0.76243337    -0.33400
C1811       C  0.57369524  0.41812811  0.73906981     0.35900
C1812       C  0.54811887  0.38919062  0.74696988    -0.06300
C1813       C  0.53680937  0.38526899  0.77790797    -0.33300
C1814       C  0.55318187  0.40762487  0.80117468     0.35800
H1815       H  0.61320746  0.45908930  0.75648148     0.16100
O1816       O  0.58594014  0.42212381  0.70913397    -0.60800
H1817       H  0.51731544  0.36299708  0.78429486     0.16100
O1818       O  0.54485805  0.40028837  0.83159554    -0.60900
H1819       H  0.52553640  0.41940386  0.83724758     0.43100
H1820       H  0.60820427  0.40520136  0.70740935     0.43100
C1821       C  0.79279754  0.40162200  0.87861419    -0.06000
C1822       C  0.82833242  0.41067498  0.86683462    -0.33400
C1823       C  0.86024432  0.38946141  0.87538616     0.35900
C1824       C  0.85696992  0.35900915  0.89655233    -0.06300
C1825       C  0.82114965  0.35025593  0.90835395    -0.33300
C1826       C  0.78926135  0.37110726  0.89936884     0.35800
H1827       H  0.83125112  0.43395190  0.85061255     0.16100
O1828       O  0.89463878  0.39979442  0.86386058    -0.57600
H1829       H  0.81782327  0.32719677  0.92471517     0.16100
O1830       O  0.75471461  0.36149376  0.91104983    -0.60900
H1831       H  0.75074017  0.37885574  0.92886290     0.43100
H1832       H  0.89688473  0.38605219  0.84387326     0.43100
C1833       C  0.69983769  0.48536745  0.95436247    -0.06000
C1834       C  0.69167490  0.45253289  0.97140992    -0.33400
C1835       C  0.70713844  0.44693428  0.00080054     0.35900
C1836       C  0.73057257  0.47488474  0.51410500    -0.06300
C1837       C  0.73722844  0.50869391  0.49781504    -0.33300
C1838       C  0.72228340  0.51392975  0.96797065     0.35800
H1839       H  0.67455181  0.43015839  0.96138944     0.16100
O1840       O  0.69878848  0.41413815  0.01648104    -0.60800
H1841       H  0.75503421  0.53052484  0.50780159     0.16100
O1842       O  0.73043258  0.54661815  0.95213497    -0.60900
H1843       H  0.70969267  0.56443464  0.95719721     0.43100
H1844       H  0.71590710  0.39456568  0.00783395     0.43100
C1845       C  0.74062537  0.47288604  0.76398975    -0.06000
C1846       C  0.71851700  0.46103694  0.73881596    -0.33400
C1847       C  0.73060786  0.46606390  0.70847878     0.35900
C1848       C  0.76596867  0.48282073  0.70246969    -0.06300
C1849       C  0.78844131  0.49459997  0.72759694    -0.33300
C1850       C  0.77574202  0.49024661  0.75823797     0.35800
H1851       H  0.69150463  0.44755770  0.74258684     0.16100
O1852       O  0.70840612  0.45228817  0.68488298    -0.60800
H1853       H  0.81580296  0.50712191  0.72349054     0.16100
O1854       O  0.79858880  0.50138934  0.78230036    -0.60900
H1855       H  0.79246053  0.52854122  0.78578075     0.43100
H1856       H  0.68924452  0.47229282  0.68102244     0.43100
loop_ 
_geom_bond_atom_site_label_1 
_geom_bond_atom_site_label_2 
_geom_bond_distance 
_geom_bond_site_symmetry_2 
_ccdc_geom_bond_type 
O1           C16   1.258       .  A
O1           Al9   1.879       .  S
C2           O12   1.263       .  A
C2            O3   1.269       .  A
C2          C905   1.474       .  S
O3           Al5   1.931       .  S
O4            C6   1.261       .  A
O4           Al5   1.909       .  S
Al5          O13   1.921       .  S
Al5          O15   1.914       .  S
Al5          O14   1.794       .  S
C6           O19   1.258       .  A
C6          C893   1.472       .  S
O7           C17   1.257       .  A
O7           Al9   1.903       .  S
O8           C21   1.266       .  A
O8          Al18   1.910       .  S
Al9          O22   1.900       .  S
Al9          O19   1.898       .  S
Al9          O14   1.777       .  S
O10          C17   1.256       .  A
O10         Al18   1.899       .  S
O11          C20   1.255       .  A
O11         Al18   1.900       .  S
O12         Al18   1.877       .  S
O13          C20   1.259       .  A
O14         Al18   1.792       .  S
O15          C16   1.260       .  A
C16         C917   1.480       .  S
C17         C869   1.484       .  S
C20         C857   1.471       .  S
C21          O22   1.265       .  A
C21         C881   1.460       .  S
O23          C38   1.264       .  A
O23         Al31   1.882       .  S
C24          O34   1.254       .  A
C24          O25   1.266       .  A
C24         C920   1.482       .  S
O25         Al27   1.936       .  S
O26          C28   1.255       .  A
O26         Al27   1.892       .  S
Al27         O35   1.858       .  S
Al27         O37   1.942       .  S
Al27         O36   1.782       .  S
C28          O41   1.257       .  A
C28         C836   1.472       .  S
O29          C39   1.263       .  A
O29         Al31   1.881       .  S
O30          C43   1.256       .  A
O30         Al40   1.899       .  S
Al31         O44   1.904       .  S
Al31         O41   1.906       .  S
Al31         O36   1.775       .  S
O32          C39   1.275       .  A
O32         Al40   1.953       .  S
O33          C42   1.263       .  A
O33         Al40   1.938       .  S
O34         Al40   1.856       .  S
O35          C42   1.253       .  A
O36         Al40   1.785       .  S
O37          C38   1.272       .  A
C38         C845   1.469       .  S
C39         C821   1.478       .  S
C42         C809   1.471       .  S
C43          O44   1.257       .  A
C43         C908   1.473       .  S
O45          C60   1.261       .  A
O45         Al53   1.920       .  S
C46          O56   1.266       .  A
C46          O47   1.259       .  A
C46         C785   1.477       .  S
O47         Al49   1.882       .  S
O48          C50   1.271       .  A
O48         Al49   1.941       .  S
Al49         O57   1.936   1_655  S
Al49         O59   1.908       .  S
Al49         O58   1.784       .  S
C50          O63   1.262       .  A
C50         C833   1.475       .  S
O51          C61   1.262       .  A
O51         Al53   1.921       .  S
O52          C65   1.268       .  A
O52         Al62   1.942       .  S
Al53         O66   1.888       .  S
Al53         O63   1.880       .  S
Al53         O58   1.775       .  S
O54          C61   1.256       .  A
O54         Al62   1.886       .  S
O55          C64   1.255       .  A
O55         Al62   1.867   1_455  S
O56         Al62   1.930       .  S
O57          C64   1.263       .  A
O58         Al62   1.777       .  S
O59          C60   1.260       .  A
C60         C800   1.473       .  S
C61         C764   1.478       .  S
C64         C752   1.468       .  S
C65          O66   1.263       .  A
C65         C776   1.476       .  S
O67          C82   1.264       .  A
O67         Al75   1.884       .  S
C68          O78   1.258       .  A
C68          O69   1.268       .  A
C68         C797   1.478       .  S
O69         Al71   1.933       .  S
O70          C72   1.257       .  A
O70         Al71   1.901       .  S
Al71         O79   1.882   1_655  S
Al71         O81   1.936       .  S
Al71         O80   1.778       .  S
C72          O85   1.259       .  A
C72         C896   1.488       .  S
O73          C83   1.263       .  A
O73         Al75   1.884       .  S
O74          C87   1.261   1_455  A
O74         Al84   1.913   1_455  S
Al75         O88   1.919       .  S
Al75         O85   1.919       .  S
Al75         O80   1.777       .  S
O76          C83   1.272       .  A
O76         Al84   1.941       .  S
O77          C86   1.261       .  A
O77         Al84   1.929   1_455  S
O78         Al84   1.874       .  S
O79          C86   1.255       .  A
O80         Al84   1.787       .  S
O81          C82   1.270       .  A
C82         C848   1.470       .  S
C83         C737   1.477       .  S
C86         C725   1.474       .  S
C87          O88   1.261       .  A
C87        C1716   1.475       .  S
O89         C104   1.266       .  A
O89         Al97   1.883       .  S
C90         O100   1.255       .  A
C90          O91   1.265       .  A
C90         C713   1.484       .  S
O91         Al93   1.927   1_565  S
O92          C94   1.257       .  A
O92         Al93   1.899       .  S
Al93        O101   1.874   1_545  S
Al93        O103   1.934       .  S
Al93        O102   1.785       .  S
C94         O107   1.256       .  A
C94         C680   1.476       .  S
O95         C105   1.264       .  A
O95         Al97   1.882       .  S
O96         C109   1.257   1_565  A
O96        Al106   1.901       .  S
Al97        O110   1.904       .  S
Al97        O107   1.903       .  S
Al97        O102   1.778       .  S
O98         C105   1.274       .  A
O98        Al106   1.949   1_545  S
O99         C108   1.263       .  A
O99        Al106   1.935       .  S
O100       Al106   1.863       .  S
O101        C108   1.254       .  A
O102       Al106   1.784   1_545  S
O103        C104   1.270       .  A
C104        C692   1.465       .  S
C105        C761   1.476       .  S
C108        C668   1.474       .  S
C109        O110   1.256       .  A
C109        C701   1.469   1_545  S
O111        C126   1.256       .  A
O111       Al119   1.876       .  S
C112        O122   1.265   1_565  A
C112        O113   1.267       .  A
C112        C704   1.477       .  S
O113       Al115   1.919       .  S
O114        C116   1.262       .  A
O114       Al115   1.905   1_545  S
Al115       O123   1.922       .  S
Al115       O125   1.908       .  S
Al115       O124   1.792   1_565  S
C116        O129   1.262       .  A
C116        C653   1.484       .  S
O117        C127   1.258       .  A
O117       Al119   1.903       .  S
O118        C131   1.268       .  A
O118       Al128   1.916       .  S
Al119       O132   1.905       .  S
Al119       O129   1.909       .  S
Al119       O124   1.776       .  S
O120        C127   1.254       .  A
O120       Al128   1.896       .  S
O121        C130   1.256       .  A
O121       Al128   1.901   1_565  S
O122       Al128   1.890       .  S
O123        C130   1.260       .  A
O124       Al128   1.788       .  S
O125        C126   1.258   1_565  A
C126        C716   1.471   1_545  S
C127        C740   1.483       .  S
C130        C644   1.470       .  S
C131        O132   1.266       .  A
C131        C773   1.465       .  S
O133        C148   1.265       .  A
O133       Al141   1.888       .  S
C134        O144   1.257       .  A
C134        O135   1.267       .  A
C134        C632   1.485       .  S
O135       Al137   1.935       .  S
O136        C138   1.257       .  A
O136       Al137   1.896       .  S
Al137       O145   1.877       .  S
Al137       O147   1.930       .  S
Al137       O146   1.783       .  S
C138        O151   1.259       .  A
C138        C656   1.477       .  S
O139        C149   1.263       .  A
O139       Al141   1.881       .  S
O140        C153   1.259       .  A
O140       Al150   1.910       .  S
Al141       O154   1.923       .  S
Al141       O151   1.923       .  S
Al141       O146   1.782       .  S
O142        C149   1.272       .  A
O142       Al150   1.941       .  S
O143        C152   1.262       .  A
O143       Al150   1.929       .  S
O144       Al150   1.876       .  S
O145        C152   1.254       .  A
O146       Al150   1.787       .  S
O147        C148   1.269       .  A
C148        C689   1.471       .  S
C149        C872   1.479       .  S
C152        C605   1.472       .  S
C153        O154   1.259       .  A
C153       C1545   1.475       .  S
O155        C170   1.261       .  A
O155       Al163   1.924       .  S
C156        O166   1.267       .  A
C156        O157   1.258       .  A
C156        C620   1.482       .  S
O157       Al159   1.877       .  S
O158        C160   1.272       .  A
O158       Al159   1.949       .  S
Al159       O167   1.943       .  S
Al159       O169   1.912       .  S
Al159       O168   1.784       .  S
C160        O173   1.262       .  A
C160        C677   1.476       .  S
O161        C171   1.262       .  A
O161       Al163   1.929       .  S
O162        C175   1.269       .  A
O162       Al172   1.935       .  S
Al163       O176   1.893       .  S
Al163       O173   1.880       .  S
Al163       O168   1.778       .  S
O164        C171   1.256       .  A
O164       Al172   1.889       .  S
O165        C174   1.255       .  A
O165       Al172   1.873       .  S
O166       Al172   1.935       .  S
O167        C174   1.265       .  A
O168       Al172   1.776       .  S
O169        C170   1.261       .  A
C170        C629   1.475       .  S
C171        C824   1.483       .  S
C174        C593   1.473       .  S
C175        O176   1.264       .  A
C175        C884   1.472       .  S
O177        C192   1.262       .  A
O177       Al185   1.871       .  S
C178        O188   1.255       .  A
C178        O179   1.268       .  A
C178        C557   1.481       .  S
O179       Al181   1.942       .  S
O180        C182   1.254       .  A
O180       Al181   1.886       .  S
Al181       O189   1.865   1_565  S
Al181       O191   1.945       .  S
Al181       O190   1.784       .  S
C182        O195   1.258       .  A
C182        C533   1.469       .  S
O183        C193   1.262       .  A
O183       Al185   1.882       .  S
O184        C197   1.259       .  A
O184       Al194   1.904       .  S
Al185       O198   1.909       .  S
Al185       O195   1.910       .  S
Al185       O190   1.775       .  S
O186        C193   1.272       .  A
O186       Al194   1.941       .  S
O187        C196   1.260       .  A
O187       Al194   1.930   1_545  S
O188       Al194   1.855       .  S
O189        C196   1.253       .  A
O190       Al194   1.784       .  S
O191        C192   1.271       .  A
C192        C548   1.465       .  S
C193        C581   1.482       .  S
C196        C749   1.467       .  S
C197        O198   1.260       .  A
C197        C569   1.474       .  S
O199        C214   1.258       .  A
O199       Al207   1.882       .  S
C200        O210   1.265       .  A
C200        O201   1.268   1_565  A
C200        C572   1.478       .  S
O201       Al203   1.929   1_545  S
O202        C204   1.263       .  A
O202       Al203   1.910       .  S
Al203       O211   1.926   1_565  S
Al203       O213   1.906       .  S
Al203       O212   1.794       .  S
C204        O217   1.260       .  A
C204        C497   1.476       .  S
O205        C215   1.257       .  A
O205       Al207   1.904       .  S
O206        C219   1.269       .  A
O206       Al216   1.916       .  S
Al207       O220   1.912       .  S
Al207       O217   1.897       .  S
Al207       O212   1.779       .  S
O208        C215   1.251       .  A
O208       Al216   1.885       .  S
O209        C218   1.254       .  A
O209       Al216   1.892   1_545  S
O210       Al216   1.888       .  S
O211        C218   1.260       .  A
O212       Al216   1.790       .  S
O213        C214   1.258       .  A
C214       C1488   1.481       .  S
C215        C509   1.481       .  S
C218        C608   1.470       .  S
C219        O220   1.267       .  A
C219        C521   1.469       .  S
O221        C236   1.265       .  A
O221       Al229   1.871       .  S
C222        O232   1.253       .  A
C222        O223   1.268       .  A
C222        C485   1.488       .  S
O223       Al225   1.936       .  S
O224        C226   1.255       .  A
O224       Al225   1.900       .  S
Al225       O233   1.867       .  S
Al225       O235   1.943       .  S
Al225       O234   1.783       .  S
C226        O239   1.256       .  A
C226        C452   1.480       .  S
O227        C237   1.264       .  A
O227       Al229   1.875       .  S
O228        C241   1.257       .  A
O228       Al238   1.910       .  S
Al229       O242   1.908       .  S
Al229       O239   1.914       .  S
Al229       O234   1.778       .  S
O230        C237   1.276       .  A
O230       Al238   1.947       .  S
O231        C240   1.262       .  A
O231       Al238   1.933       .  S
O232       Al238   1.856       .  S
O233        C240   1.253       .  A
O234       Al238   1.785       .  S
O235        C236   1.274       .  A
C236        C461   1.463       .  S
C237        C512   1.477       .  S
C240        C860   1.474       .  S
C241        O242   1.256       .  A
C241        C473   1.479       .  S
O243        C258   1.259       .  A
O243       Al251   1.891       .  S
C244        O254   1.265       .  A
C244        O245   1.266       .  A
C244        C476   1.477       .  S
O245       Al247   1.921       .  S
O246        C248   1.261       .  A
O246       Al247   1.906       .  S
Al247       O255   1.928       .  S
Al247       O257   1.910       .  S
Al247       O256   1.797       .  S
C248        O261   1.258       .  A
C248        C437   1.479       .  S
O249        C259   1.258       .  A
O249       Al251   1.907       .  S
O250        C263   1.268       .  A
O250       Al260   1.921       .  S
Al251       O264   1.901       .  S
Al251       O261   1.898       .  S
Al251       O256   1.785       .  S
O252        C259   1.254       .  A
O252       Al260   1.891       .  S
O253        C262   1.255       .  A
O253       Al260   1.892       .  S
O254       Al260   1.895       .  S
O255        C262   1.261       .  A
O256       Al260   1.791       .  S
O257        C258   1.260       .  A
C258        C488   1.473       .  S
C259        C584   1.485       .  S
C262        C665   1.474       .  S
C263        O264   1.264       .  A
C263        C524   1.468       .  S
O265        C280   1.259   1_455  A
O265       Al273   1.912       .  S
C266        O276   1.265       .  A
C266        O267   1.257       .  A
C266        C413   1.480       .  S
O267       Al269   1.879       .  S
O268        C270   1.272       .  A
O268       Al269   1.943   1_455  S
Al269       O277   1.940       .  S
Al269       O279   1.903       .  S
Al269       O278   1.786   1_655  S
C270        O283   1.263       .  A
C270        C536   1.481       .  S
O271        C281   1.262       .  A
O271       Al273   1.926       .  S
O272        C285   1.269       .  A
O272       Al282   1.941       .  S
Al273       O286   1.895       .  S
Al273       O283   1.878       .  S
Al273       O278   1.777       .  S
O274        C281   1.255       .  A
O274       Al282   1.884       .  S
O275        C284   1.255       .  A
O275       Al282   1.863   1_655  S
O276       Al282   1.927   1_655  S
O277        C284   1.265       .  A
O278       Al282   1.776       .  S
O279        C280   1.258       .  A
C280        C425   1.466       .  S
C281        C392   1.479       .  S
C284        C812   1.473       .  S
C285        O286   1.264       .  A
C285        C404   1.475       .  S
O287        C302   1.262       .  A
O287       Al295   1.876       .  S
C288        O298   1.257       .  A
C288        O289   1.269       .  A
C288        C428   1.479       .  S
O289       Al291   1.936   1_655  S
O290        C292   1.257       .  A
O290       Al291   1.898       .  S
Al291       O299   1.873   1_455  S
Al291       O301   1.937       .  S
Al291       O300   1.780       .  S
C292        O305   1.260       .  A
C292        C500   1.481       .  S
O293        C303   1.262       .  A
O293       Al295   1.876       .  S
O294        C307   1.259   1_655  A
O294       Al304   1.906       .  S
Al295       O308   1.922       .  S
Al295       O305   1.921       .  S
Al295       O300   1.777       .  S
O296        C303   1.274       .  A
O296       Al304   1.949   1_455  S
O297        C306   1.262       .  A
O297       Al304   1.935       .  S
O298       Al304   1.865       .  S
O299        C306   1.253       .  A
O300       Al304   1.783   1_455  S
O301        C302   1.270       .  A
C302        C545   1.467       .  S
C303        C377   1.482       .  S
C306        C641   1.473       .  S
C307        O308   1.260       .  A
C307        C416   1.472   1_455  S
O309        C324   1.265       .  A
O309       Al317   1.879       .  S
C310        O320   1.254       .  A
C310        O311   1.266       .  A
C310        C365   1.476       .  S
O311       Al313   1.932       .  S
O312        C314   1.254       .  A
O312       Al313   1.894       .  S
Al313       O321   1.870       .  S
Al313       O323   1.935       .  S
Al313       O322   1.781       .  S
C314        O327   1.256       .  A
C314        C440   1.474       .  S
O315        C325   1.263       .  A
O315       Al317   1.881       .  S
O316        C329   1.257       .  A
O316       Al326   1.900       .  S
Al317       O330   1.914       .  S
Al317       O327   1.916       .  S
Al317       O322   1.778       .  S
O318        C325   1.273       .  A
O318       Al326   1.947       .  S
O319        C328   1.261       .  A
O319       Al326   1.932       .  S
O320       Al326   1.852       .  S
O321        C328   1.253       .  A
O322       Al326   1.785       .  S
O323        C324   1.272       .  A
C324        C464   1.466       .  S
C325        C389   1.471       .  S
C328        C596   1.472       .  S
C329        O330   1.260       .  A
C329        C353   1.479       .  S
O331        C346   1.258       .  A
O331       Al339   1.872       .  S
C332        O342   1.264       .  A
C332        O333   1.270       .  A
C332        C356   1.472       .  S
O333       Al335   1.934       .  S
O334        C336   1.261       .  A
O334       Al335   1.909       .  S
Al335       O343   1.920       .  S
Al335       O345   1.912       .  S
Al335       O344   1.794       .  S
C336        O349   1.257       .  A
C336        C449   1.477       .  S
O337        C347   1.257       .  A
O337       Al339   1.901       .  S
O338        C351   1.268       .  A
O338       Al348   1.917       .  S
Al339       O352   1.906       .  S
Al339       O349   1.896       .  S
Al339       O344   1.776       .  S
O340        C347   1.254       .  A
O340       Al348   1.899       .  S
O341        C350   1.254       .  A
O341       Al348   1.897       .  S
O342       Al348   1.878       .  S
O343        C350   1.258       .  A
O344       Al348   1.792       .  S
O345        C346   1.261       .  A
C346       C1296   1.477       .  S
C347        C380   1.482       .  S
C350        C728   1.470       .  S
C351        O352   1.266       .  A
C351        C401   1.466       .  S
C353        C354   1.404       .  A
C353        C358   1.411       .  A
C354        C355   1.393       .  A
C354        H359   1.084       .  S
C355        C356   1.409       .  A
C355        O360   1.373       .  S
C356        C357   1.403       .  A
C357        C358   1.403       .  A
C357        H361   1.083       .  S
C358        O362   1.371       .  S
O360        H364   0.992       .  S
O362        H363   0.992       .  S
C365        C366   1.404       .  A
C365        C370   1.412       .  A
C366        C367   1.405       .  A
C366        H371   1.083       .  S
C367        C368   1.412       .  A
C367       O1300   1.371   1_554  S
C368       C1274   1.477   1_554  S
C368        C369   1.401       .  A
C369        C370   1.390       .  A
C369        H373   1.084       .  S
C370        O374   1.373       .  S
O372       C1295   1.371       .  S
O372        H376   0.992       .  S
O374        H375   0.992       .  S
C377        C378   1.403       .  A
C377        C382   1.414       .  A
C378        C379   1.398       .  A
C378        H383   1.084       .  S
C379        C380   1.415       .  A
C379        O384   1.372       .  S
C380        C381   1.403       .  A
C381        C382   1.398       .  A
C381        H385   1.083       .  S
C382        O386   1.372       .  S
O384        H388   0.992       .  S
O386        H387   0.992       .  S
C389        C390   1.399       .  A
C389        C394   1.409       .  A
C390        C391   1.398       .  A
C390        H395   1.084       .  S
C391        C392   1.413       .  A
C391        O396   1.372       .  S
C392        C393   1.405       .  A
C393        C394   1.399       .  A
C393        H397   1.084       .  S
C394        O398   1.372       .  S
O396        H400   0.992       .  S
O398        H399   0.992       .  S
C401        C406   1.406       .  A
C401       C1330   1.402       .  A
C402        C403   1.402       .  A
C402       C1329   1.402   1_554  A
C402       H1335   1.084       .  S
C403        C404   1.410       .  A
C403        O408   1.373       .  S
C404        C405   1.403   1_554  A
C405       C1334   1.400       .  A
C405        H409   1.084       .  S
C406       C1333   1.400       .  A
C406        O410   1.373       .  S
H407       C1330   1.084       .  S
O408        H412   0.992       .  S
O410        H411   0.992       .  S
C413        C414   1.407       .  A
C413        C418   1.410   1_655  A
C414        C415   1.401       .  A
C414        H419   1.084       .  S
C415        C416   1.405       .  A
C415        O420   1.372       .  S
C416        C417   1.403   1_655  A
C417        C418   1.400       .  A
C417        H421   1.084       .  S
C418        O422   1.371       .  S
O420        H424   0.992       .  S
O422        H423   0.991       .  S
C425        C430   1.407   1_654  A
C425       C1354   1.397   1_554  A
C426        C427   1.400       .  A
C426       C1353   1.397       .  A
C426        H431   1.084       .  S
C427        C428   1.415       .  A
C427        O432   1.372       .  S
C428        C429   1.403   1_655  A
C429       C1358   1.400       .  A
C429        H433   1.084       .  S
C430       C1357   1.400       .  A
C430        O434   1.372   1_556  S
O432        H436   0.992       .  S
O434        H435   0.992       .  S
C437        C438   1.407       .  A
C437        C442   1.407       .  A
C438        C439   1.404       .  A
C438        H443   1.084       .  S
C439        C440   1.407       .  A
C439        O444   1.372       .  S
C440        C441   1.403       .  A
C441        C442   1.400       .  A
C441        H445   1.084       .  S
C442        O446   1.371       .  S
O444        H448   0.991       .  S
O446        H447   0.992       .  S
C449        C450   1.404       .  A
C449        C454   1.407       .  A
C450        C451   1.403       .  A
C450        H455   1.084       .  S
C451        C452   1.409       .  A
C451        O456   1.372       .  S
C452        C453   1.406       .  A
C453        C454   1.404       .  A
C453        H457   1.084       .  S
C454        O458   1.371       .  S
O456        H460   0.992       .  S
O458        H459   0.992       .  S
C461        C462   1.401       .  A
C461        C466   1.408       .  A
C462        C463   1.398       .  A
C462        H467   1.084       .  S
C463        C464   1.408       .  A
C463        O468   1.373       .  S
C464        C465   1.401       .  A
C465        C466   1.398       .  A
C465        H469   1.084       .  S
C466        O470   1.373       .  S
O468        H472   0.992       .  S
O470        H471   0.992       .  S
C473        C474   1.403       .  A
C473        C478   1.412       .  A
C474        C475   1.403       .  A
C474        H479   1.083       .  S
C475        C476   1.411       .  A
C475        O480   1.371       .  S
C476        C477   1.401       .  A
C477        C478   1.397       .  A
C477        H481   1.084       .  S
C478        O482   1.373       .  S
O480        H484   0.992       .  S
O482        H483   0.992       .  S
C485        C486   1.406       .  A
C485        C490   1.420       .  A
C486       C1415   1.405       .  A
C486        H491   1.083       .  S
C487        C488   1.409   1_556  A
C487       C1414   1.405       .  A
C487        O492   1.371   1_556  S
C488       C1417   1.397   1_554  A
C489        C490   1.395       .  A
C489       C1416   1.397       .  A
C489        H493   1.084       .  S
C490        O494   1.373       .  S
O492        H496   0.991       .  S
O494        H495   0.992       .  S
C497        C498   1.402       .  A
C497        C502   1.409       .  A
C498        C499   1.403       .  A
C498        H503   1.084       .  S
C499        C500   1.412       .  A
C499        O504   1.372       .  S
C500        C501   1.404       .  A
C501        C502   1.402       .  A
C501        H505   1.084       .  S
C502        O506   1.372       .  S
O504        H508   0.992       .  S
O506        H507   0.992       .  S
C509        C510   1.403       .  A
C509        C514   1.415       .  A
C510        C511   1.399       .  A
C510        H515   1.084       .  S
C511        C512   1.413       .  A
C511        O516   1.372       .  S
C512        C513   1.400       .  A
C513        C514   1.395       .  A
C513        H517   1.084       .  S
C514        O518   1.372       .  S
O516        H520   0.992       .  S
O518        H519   0.992       .  S
C521        C526   1.408       .  A
C521       C1450   1.402       .  A
C522        C523   1.402       .  A
C522       C1449   1.402   1_554  A
C522        H527   1.084       .  S
C523        C524   1.409       .  A
C523        O528   1.372       .  S
C524        C525   1.402   1_554  A
C525       C1454   1.402       .  A
C525        H529   1.084       .  S
C526       C1453   1.402       .  A
C526        O530   1.372       .  S
O528        H532   0.992       .  S
O530        H531   0.992       .  S
C533        C534   1.403       .  A
C533        C538   1.403       .  A
C534        C535   1.400       .  A
C534        H539   1.084       .  S
C535        C536   1.411       .  A
C535        O540   1.371       .  S
C536        C537   1.407       .  A
C537        C538   1.397       .  A
C537        H541   1.083       .  S
C538        O542   1.371       .  S
O540        H544   0.991       .  S
O542        H543   0.992       .  S
C545        C546   1.401       .  A
C545        C550   1.410       .  A
C546        C547   1.397       .  A
C546        H551   1.084       .  S
C547        C548   1.409       .  A
C547        O552   1.372       .  S
C548        C549   1.401       .  A
C549        C550   1.398       .  A
C549        H553   1.084       .  S
C550        O554   1.372       .  S
O552        H556   0.991       .  S
O554        H555   0.991   1_455  S
C557        C558   1.404       .  A
C557        C562   1.414       .  A
C558        C559   1.407       .  A
C558        H563   1.083   1_565  S
C559        C560   1.414       .  A
C559       O1492   1.371   1_564  S
C560       C1142   1.481   1_554  S
C560        C561   1.400       .  A
C561        C562   1.392       .  A
C561        H565   1.084       .  S
C562        O566   1.373       .  S
O564       C1487   1.371   1_545  S
O564        H568   0.991       .  S
O566        H567   0.992       .  S
C569        C570   1.403   1_565  A
C569        C574   1.409       .  A
C570        C571   1.403       .  A
C570        H575   1.084       .  S
C571        C572   1.413   1_545  A
C571        O576   1.371       .  S
C572        C573   1.402       .  A
C573        C574   1.394       .  A
C573        H577   1.084       .  S
C574        O578   1.373       .  S
O576        H580   0.992       .  S
O578        H579   0.992       .  S
C581        C582   1.402       .  A
C581        C586   1.413       .  A
C582        C583   1.396       .  A
C582        H587   1.084       .  S
C583        C584   1.415       .  A
C583        O588   1.372       .  S
C584        C585   1.404       .  A
C585        C586   1.401       .  A
C585        H589   1.083       .  S
C586        O590   1.371       .  S
O588        H592   0.992       .  S
O590        H591   0.992       .  S
C593        C594   1.403       .  A
C593        C598   1.409       .  A
C594        C595   1.399       .  A
C594        H599   1.084       .  S
C595        C596   1.407       .  A
C595        O600   1.372       .  S
C596        C597   1.403       .  A
C597        C598   1.406       .  A
C597        H601   1.084       .  S
C598        O602   1.372       .  S
O600        H604   0.992       .  S
O602        H603   0.992       .  S
C605        C606   1.404       .  A
C605        C610   1.406       .  A
C606        C607   1.403       .  A
C606        H611   1.084       .  S
C607        C608   1.407       .  A
C607        O612   1.373       .  S
C608        C609   1.404       .  A
C609        C610   1.402       .  A
C609        H613   1.084       .  S
C610        O614   1.372       .  S
O612        H616   0.992       .  S
O614        H615   0.991       .  S
C617       C1081   1.475   1_554  S
C617        C618   1.405       .  A
C617        C622   1.404       .  A
C618        C619   1.404       .  A
C618        H623   1.084       .  S
C619        C620   1.410       .  A
C619        O624   1.372       .  S
C620        C621   1.407       .  A
C621        C622   1.401       .  A
C621        H625   1.084       .  S
C622        O626   1.371       .  S
O624        H628   0.992       .  S
O626        H627   0.992       .  S
C629        C630   1.399       .  A
C629        C634   1.409       .  A
C630        C631   1.402       .  A
C630        H635   1.084       .  S
C631        C632   1.414       .  A
C631        O636   1.372       .  S
C632        C633   1.404       .  A
C633        C634   1.404       .  A
C633        H637   1.084       .  S
C634        O638   1.372       .  S
O636        H640   0.992       .  S
O638        H639   0.992       .  S
C641        C642   1.403       .  A
C641        C646   1.409       .  A
C642        C643   1.403       .  A
C642        H647   1.084       .  S
C643        C644   1.408       .  A
C643        O648   1.371       .  S
C644        C645   1.401       .  A
C645        C646   1.400       .  A
C645        H649   1.084       .  S
C646        O650   1.372       .  S
O648        H652   0.991       .  S
O650        H651   0.991       .  S
C653        C654   1.408       .  A
C653        C658   1.409       .  A
C654        C655   1.405       .  A
C654        H659   1.084       .  S
C655        C656   1.407       .  A
C655        O660   1.372       .  S
C656        C657   1.403       .  A
C657        C658   1.402       .  A
C657        H661   1.084       .  S
C658        O662   1.371       .  S
O660        H664   0.992       .  S
O662        H663   0.992       .  S
C665        C666   1.405       .  A
C665        C670   1.406       .  A
C666        C667   1.404       .  A
C666        H671   1.084       .  S
C667        C668   1.406       .  A
C667        O672   1.372       .  S
C668        C669   1.405       .  A
C669        C670   1.404       .  A
C669        H673   1.084       .  S
C670        O674   1.371       .  S
O672        H676   0.992       .  S
O674        H675   0.992       .  S
C677        C678   1.404       .  A
C677        C682   1.408       .  A
C678        C679   1.398       .  A
C678        H683   1.084       .  S
C679        C680   1.409       .  A
C679        O684   1.372       .  S
C680        C681   1.404       .  A
C681        C682   1.401       .  A
C681        H685   1.084       .  S
C682        O686   1.371       .  S
O684        H688   0.991       .  S
O686        H687   0.992       .  S
C689        C694   1.409       .  A
C689       C1618   1.404       .  A
C690        C691   1.397       .  A
C690       C1617   1.404   1_554  A
C690        H695   1.084       .  S
C691        C692   1.407       .  A
C691        O696   1.372       .  S
C692        C693   1.401       .  A
C693       C1622   1.397   1_554  A
C693        H697   1.084       .  S
C694       C1621   1.397       .  A
C694        O698   1.371       .  S
O696        H700   0.991       .  S
O698        H699   0.991       .  S
C701        C706   1.409   1_565  A
C701       C1630   1.399   1_554  A
C702        C703   1.399       .  A
C702       C1629   1.399       .  A
C702        H707   1.084       .  S
C703        C704   1.413       .  A
C703        O708   1.371       .  S
C704        C705   1.404   1_565  A
C705       C1634   1.395       .  A
C705        H709   1.084       .  S
C706       C1633   1.395   1_554  A
C706        O710   1.373       .  S
O708        H712   0.991       .  S
O710        H711   0.992       .  S
C713        C714   1.408       .  A
C713        C718   1.416       .  A
C714        C715   1.405       .  A
C714        H719   1.083       .  S
C715        C716   1.408       .  A
C715        O720   1.371       .  S
C716        C717   1.398       .  A
C717        C718   1.391       .  A
C717        H721   1.084   1_565  S
C718        O722   1.372       .  S
O720        H724   0.991       .  S
O722        H723   0.992       .  S
C725        C726   1.403       .  A
C725        C730   1.408       .  A
C726        C727   1.401       .  A
C726        H731   1.084       .  S
C727        C728   1.406       .  A
C727        O732   1.372       .  S
C728        C729   1.405       .  A
C729        C730   1.404       .  A
C729        H733   1.084       .  S
C730        O734   1.371       .  S
O732        H736   0.992       .  S
O734        H735   0.991       .  S
C737        C738   1.401       .  A
C737        C742   1.411       .  A
C738        C739   1.397       .  A
C738        H743   1.084       .  S
C739        C740   1.415       .  A
C739        O744   1.372       .  S
C740        C741   1.404       .  A
C741        C742   1.399       .  A
C741        H745   1.083       .  S
C742        O746   1.372       .  S
O744        H748   0.992       .  S
O746        H747   0.992       .  S
C749        C750   1.401       .  A
C749        C754   1.407       .  A
C750        C751   1.394       .  A
C750        H755   1.084       .  S
C751        C752   1.406       .  A
C751        O756   1.372       .  S
C752        C753   1.404       .  A
C753        C754   1.405       .  A
C753        H757   1.084       .  S
C754        O758   1.372       .  S
O756        H760   0.992       .  S
O758        H759   0.992       .  S
C761        C762   1.403       .  A
C761        C766   1.409       .  A
C762        C763   1.400       .  A
C762        H767   1.084       .  S
C763        C764   1.412       .  A
C763        O768   1.372       .  S
C764        C765   1.403       .  A
C765        C766   1.398       .  A
C765        H769   1.084       .  S
C766        O770   1.371       .  S
O768        H772   0.992       .  S
O770        H771   0.992       .  S
C773        C774   1.403       .  A
C773        C778   1.405       .  A
C774        C775   1.403       .  A
C774        H779   1.084       .  S
C775        C776   1.410       .  A
C775        O780   1.371       .  S
C776        C777   1.403       .  A
C777        C778   1.398       .  A
C777        H781   1.084       .  S
C778        O782   1.373       .  S
O780        H784   0.991       .  S
O782        H783   0.992       .  S
C785        C786   1.406   1_655  A
C785        C790   1.408       .  A
C786        C787   1.403       .  A
C786        H791   1.084       .  S
C787        C788   1.406   1_455  A
C787       O1720   1.372       .  S
C788       C1015   1.475   1_554  S
C788        C789   1.404       .  A
C789        C790   1.400       .  A
C789        H793   1.084       .  S
C790        O794   1.372       .  S
O792       C1715   1.372       .  S
O792       H1724   0.992       .  S
O794        H795   0.991       .  S
H796       O1720   0.992       .  S
C797        C798   1.407   1_655  A
C797        C802   1.408       .  A
C798        C799   1.402       .  A
C798        H803   1.084       .  S
C799        C800   1.405   1_455  A
C799        O804   1.371       .  S
C800        C801   1.404       .  A
C801        C802   1.401       .  A
C801        H805   1.084       .  S
C802        O806   1.372       .  S
O804        H808   0.992       .  S
O806        H807   0.991       .  S
C809        C810   1.402       .  A
C809        C814   1.407       .  A
C810        C811   1.395       .  A
C810        H815   1.085       .  S
C811        C812   1.408       .  A
C811        O816   1.374       .  S
C812        C813   1.406       .  A
C813        C814   1.407       .  A
C813        H817   1.083       .  S
C814        O818   1.370       .  S
O816        H820   0.992       .  S
O818        H819   0.991       .  S
C821        C822   1.401       .  A
C821        C826   1.411       .  A
C822        C823   1.400       .  A
C822        H827   1.084       .  S
C823        C824   1.413       .  A
C823        O828   1.371       .  S
C824        C825   1.404       .  A
C825        C826   1.401       .  A
C825        H829   1.084       .  S
C826        O830   1.372       .  S
O828        H832   0.992       .  S
O830        H831   0.992       .  S
C833        C834   1.405       .  A
C833        C838   1.409       .  A
C834        C835   1.397       .  A
C834        H839   1.084       .  S
C835        C836   1.408       .  A
C835        O840   1.372       .  S
C836        C837   1.404       .  A
C837        C838   1.399       .  A
C837        H841   1.084       .  S
C838        O842   1.372       .  S
O840        H844   0.992       .  S
O842        H843   0.992       .  S
C845        C846   1.403       .  A
C845        C850   1.408       .  A
C846       C1775   1.398   1_554  A
C846        H851   1.084       .  S
C847        C848   1.408       .  A
C847       C1774   1.398       .  A
C847        O852   1.372       .  S
C848       C1777   1.403       .  A
C849        C850   1.399       .  A
C849       C1776   1.403   1_554  A
C849        H853   1.084       .  S
C850        O854   1.372       .  S
O852        H856   0.991       .  S
O854        H855   0.996       .  S
C857        C858   1.401       .  A
C857        C862   1.408       .  A
C858        C859   1.400       .  A
C858        H863   1.084       .  S
C859        C860   1.409       .  A
C859        O864   1.373       .  S
C860        C861   1.404       .  A
C861        C862   1.405       .  A
C861        H865   1.084       .  S
C862        O866   1.371       .  S
O864        H868   0.992       .  S
O866        H867   0.991       .  S
C869        C870   1.408       .  A
C869        C874   1.411       .  A
C870        C871   1.398       .  A
C870        H875   1.083       .  S
C871        C872   1.408       .  A
C871        O876   1.372       .  S
C872        C873   1.406       .  A
C873        C874   1.400       .  A
C873        H877   1.084       .  S
C874        O878   1.371       .  S
O876        H880   0.992       .  S
O878        H879   0.992       .  S
C881        C882   1.400       .  A
C881        C886   1.406       .  A
C882        C883   1.399       .  A
C882        H887   1.084       .  S
C883        C884   1.410       .  A
C883        O888   1.373       .  S
C884        C885   1.403       .  A
C885        C886   1.399       .  A
C885        H889   1.084       .  S
C886        O890   1.372       .  S
O888        H892   0.992       .  S
O890        H891   0.992       .  S
C893        C894   1.401       .  A
C893        C898   1.406       .  A
C894        C895   1.404       .  A
C894        H899   1.084       .  S
C895        C896   1.414       .  A
C895        O900   1.371       .  S
C896        C897   1.408       .  A
C897        C898   1.401       .  A
C897        H901   1.083       .  S
C898        O902   1.372       .  S
O900        H904   0.992       .  S
O902        H903   0.992       .  S
C905        C906   1.402       .  A
C905        C910   1.410       .  A
C906        C907   1.393       .  A
C906        H911   1.084       .  S
C907       C1836   1.409       .  A
C907        O912   1.373       .  S
C908        C909   1.404   1_554  A
C908       C1835   1.409       .  A
C909       C1838   1.402       .  A
C909        H913   1.084   1_556  S
C910       C1837   1.402       .  A
C910        O914   1.371       .  S
O912        H916   0.992       .  S
O914        H915   0.992       .  S
C917        C918   1.400       .  A
C917        C922   1.413       .  A
C918        C919   1.391       .  A
C918        H923   1.084       .  S
C919        C920   1.414       .  A
C919        O924   1.373       .  S
C920        C921   1.405       .  A
C921        C922   1.408       .  A
C921        H925   1.083       .  S
C922        O926   1.371       .  S
O924        H928   0.992       .  S
O926        H927   0.992       .  S
O929        C944   1.258       .  A
O929       Al937   1.879       .  S
C930        O940   1.263       .  A
C930        O931   1.269       .  A
C930       C1833   1.474       .  S
O931       Al933   1.931       .  S
O932        C934   1.261       .  A
O932       Al933   1.909       .  S
Al933       O941   1.921       .  S
Al933       O943   1.914       .  S
Al933       O942   1.794       .  S
C934        O947   1.258       .  A
C934       C1821   1.472       .  S
O935        C945   1.257       .  A
O935       Al937   1.903       .  S
O936        C949   1.266       .  A
O936       Al946   1.910       .  S
Al937       O950   1.900       .  S
Al937       O947   1.898       .  S
Al937       O942   1.777       .  S
O938        C945   1.256       .  A
O938       Al946   1.899       .  S
O939        C948   1.255       .  A
O939       Al946   1.900       .  S
O940       Al946   1.877       .  S
O941        C948   1.259       .  A
O942       Al946   1.791       .  S
O943        C944   1.260       .  A
C944       C1845   1.480       .  S
C945       C1797   1.484       .  S
C948       C1785   1.471       .  S
C949        O950   1.265       .  A
C949       C1809   1.460       .  S
O951        C966   1.264       .  A
O951       Al959   1.882       .  S
C952        O962   1.254       .  A
C952        O953   1.266       .  A
C952       C1848   1.482       .  S
O953       Al955   1.936       .  S
O954        C956   1.255       .  A
O954       Al955   1.892       .  S
Al955       O963   1.858       .  S
Al955       O965   1.942       .  S
Al955       O964   1.782       .  S
C956        O969   1.257       .  A
C956       C1764   1.472       .  S
O957        C967   1.263       .  A
O957       Al959   1.881       .  S
O958        C971   1.256       .  A
O958       Al968   1.899       .  S
Al959       O972   1.904       .  S
Al959       O969   1.906       .  S
Al959       O964   1.775       .  S
O960        C967   1.275       .  A
O960       Al968   1.953       .  S
O961        C970   1.263       .  A
O961       Al968   1.938       .  S
O962       Al968   1.856       .  S
O963        C970   1.253       .  A
O964       Al968   1.785       .  S
O965        C966   1.272       .  A
C966       C1773   1.469       .  S
C967       C1749   1.478       .  S
C970       C1737   1.471       .  S
C971        O972   1.257       .  A
C971       C1836   1.473       .  S
O973        C988   1.261       .  A
O973       Al981   1.920       .  S
C974        O984   1.266       .  A
C974        O975   1.259       .  A
C974       C1713   1.477       .  S
O975       Al977   1.882       .  S
O976        C978   1.271       .  A
O976       Al977   1.941       .  S
Al977       O985   1.936   1_655  S
Al977       O987   1.908       .  S
Al977       O986   1.784       .  S
C978        O991   1.262       .  A
C978       C1761   1.475       .  S
O979        C989   1.262       .  A
O979       Al981   1.921       .  S
O980        C993   1.268       .  A
O980       Al990   1.942       .  S
Al981       O994   1.888       .  S
Al981       O991   1.880       .  S
Al981       O986   1.775       .  S
O982        C989   1.256       .  A
O982       Al990   1.886       .  S
O983        C992   1.255       .  A
O983       Al990   1.867   1_455  S
O984       Al990   1.930       .  S
O985        C992   1.263       .  A
O986       Al990   1.777       .  S
O987        C988   1.260       .  A
C988       C1728   1.473       .  S
C989       C1692   1.478       .  S
C992       C1680   1.468       .  S
C993        O994   1.263       .  A
C993       C1704   1.476       .  S
O995       C1010   1.264       .  A
O995      Al1003   1.884       .  S
C996       O1006   1.258       .  A
C996        O997   1.268       .  A
C996       C1725   1.478       .  S
O997       Al999   1.932       .  S
O998       C1000   1.257       .  A
O998       Al999   1.901       .  S
Al999      O1007   1.882   1_655  S
Al999      O1009   1.936       .  S
Al999      O1008   1.778       .  S
C1000      O1013   1.259       .  A
C1000      C1824   1.488       .  S
O1001      C1011   1.263       .  A
O1001     Al1003   1.884       .  S
O1002      C1015   1.261   1_455  A
O1002     Al1012   1.913   1_455  S
Al1003     O1016   1.919       .  S
Al1003     O1013   1.919       .  S
Al1003     O1008   1.777       .  S
O1004      C1011   1.272       .  A
O1004     Al1012   1.941       .  S
O1005      C1014   1.261       .  A
O1005     Al1012   1.929   1_455  S
O1006     Al1012   1.874       .  S
O1007      C1014   1.255       .  A
O1008     Al1012   1.787       .  S
O1009      C1010   1.270       .  A
C1010      C1776   1.470       .  S
C1011      C1665   1.477       .  S
C1014      C1653   1.474       .  S
C1015      O1016   1.261       .  A
O1017      C1032   1.266       .  A
O1017     Al1025   1.883       .  S
C1018      O1028   1.255       .  A
C1018      O1019   1.265       .  A
C1018      C1641   1.484       .  S
O1019     Al1021   1.927   1_565  S
O1020      C1022   1.257       .  A
O1020     Al1021   1.899       .  S
Al1021     O1029   1.874   1_545  S
Al1021     O1031   1.934       .  S
Al1021     O1030   1.785       .  S
C1022      O1035   1.256       .  A
C1022      C1608   1.476       .  S
O1023      C1033   1.264       .  A
O1023     Al1025   1.882       .  S
O1024      C1037   1.257   1_565  A
O1024     Al1034   1.901       .  S
Al1025     O1038   1.904       .  S
Al1025     O1035   1.903       .  S
Al1025     O1030   1.778       .  S
O1026      C1033   1.274       .  A
O1026     Al1034   1.949   1_545  S
O1027      C1036   1.263       .  A
O1027     Al1034   1.935       .  S
O1028     Al1034   1.863       .  S
O1029      C1036   1.254       .  A
O1030     Al1034   1.784   1_545  S
O1031      C1032   1.270       .  A
C1032      C1620   1.465       .  S
C1033      C1689   1.476       .  S
C1036      C1596   1.474       .  S
C1037      O1038   1.256       .  A
C1037      C1629   1.469   1_545  S
O1039      C1054   1.256       .  A
O1039     Al1047   1.876       .  S
C1040      O1050   1.265   1_565  A
C1040      O1041   1.267       .  A
C1040      C1632   1.477       .  S
O1041     Al1043   1.919       .  S
O1042      C1044   1.262       .  A
O1042     Al1043   1.905   1_545  S
Al1043     O1051   1.922       .  S
Al1043     O1053   1.908       .  S
Al1043     O1052   1.792   1_565  S
C1044      O1057   1.262       .  A
C1044      C1581   1.484       .  S
O1045      C1055   1.258       .  A
O1045     Al1047   1.903       .  S
O1046      C1059   1.268       .  A
O1046     Al1056   1.916       .  S
Al1047     O1060   1.905       .  S
Al1047     O1057   1.909       .  S
Al1047     O1052   1.776       .  S
O1048      C1055   1.254       .  A
O1048     Al1056   1.896       .  S
O1049      C1058   1.256       .  A
O1049     Al1056   1.901   1_565  S
O1050     Al1056   1.890       .  S
O1051      C1058   1.260       .  A
O1052     Al1056   1.788       .  S
O1053      C1054   1.258   1_565  A
C1054      C1644   1.471   1_545  S
C1055      C1668   1.483       .  S
C1058      C1572   1.470       .  S
C1059      O1060   1.266       .  A
C1059      C1701   1.465       .  S
O1061      C1076   1.265       .  A
O1061     Al1069   1.888       .  S
C1062      O1072   1.257       .  A
C1062      O1063   1.267       .  A
C1062      C1560   1.485       .  S
O1063     Al1065   1.935       .  S
O1064      C1066   1.257       .  A
O1064     Al1065   1.896       .  S
Al1065     O1073   1.877       .  S
Al1065     O1075   1.930       .  S
Al1065     O1074   1.783       .  S
C1066      O1079   1.259       .  A
C1066      C1584   1.477       .  S
O1067      C1077   1.263       .  A
O1067     Al1069   1.881       .  S
O1068      C1081   1.259       .  A
O1068     Al1078   1.910       .  S
Al1069     O1082   1.923       .  S
Al1069     O1079   1.923       .  S
Al1069     O1074   1.782       .  S
O1070      C1077   1.272       .  A
O1070     Al1078   1.941       .  S
O1071      C1080   1.262       .  A
O1071     Al1078   1.929       .  S
O1072     Al1078   1.876       .  S
O1073      C1080   1.254       .  A
O1074     Al1078   1.787       .  S
O1075      C1076   1.269       .  A
C1076      C1617   1.471       .  S
C1077      C1800   1.479       .  S
C1080      C1533   1.472       .  S
C1081      O1082   1.259       .  A
O1083      C1098   1.261       .  A
O1083     Al1091   1.924       .  S
C1084      O1094   1.267       .  A
C1084      O1085   1.258       .  A
C1084      C1548   1.482       .  S
O1085     Al1087   1.877       .  S
O1086      C1088   1.272       .  A
O1086     Al1087   1.949       .  S
Al1087     O1095   1.943       .  S
Al1087     O1097   1.912       .  S
Al1087     O1096   1.784       .  S
C1088      O1101   1.262       .  A
C1088      C1605   1.476       .  S
O1089      C1099   1.262       .  A
O1089     Al1091   1.928       .  S
O1090      C1103   1.269       .  A
O1090     Al1100   1.935       .  S
Al1091     O1104   1.893       .  S
Al1091     O1101   1.880       .  S
Al1091     O1096   1.778       .  S
O1092      C1099   1.256       .  A
O1092     Al1100   1.889       .  S
O1093      C1102   1.255       .  A
O1093     Al1100   1.873       .  S
O1094     Al1100   1.935       .  S
O1095      C1102   1.265       .  A
O1096     Al1100   1.776       .  S
O1097      C1098   1.261       .  A
C1098      C1557   1.475       .  S
C1099      C1752   1.483       .  S
C1102      C1521   1.473       .  S
C1103      O1104   1.264       .  A
C1103      C1812   1.472       .  S
O1105      C1120   1.262       .  A
O1105     Al1113   1.871       .  S
C1106      O1116   1.255       .  A
C1106      O1107   1.268       .  A
C1106      C1485   1.481       .  S
O1107     Al1109   1.942       .  S
O1108      C1110   1.254       .  A
O1108     Al1109   1.886       .  S
Al1109     O1117   1.865   1_565  S
Al1109     O1119   1.945       .  S
Al1109     O1118   1.784       .  S
C1110      O1123   1.258       .  A
C1110      C1461   1.469       .  S
O1111      C1121   1.262       .  A
O1111     Al1113   1.882       .  S
O1112      C1125   1.259       .  A
O1112     Al1122   1.904       .  S
Al1113     O1126   1.909       .  S
Al1113     O1123   1.910       .  S
Al1113     O1118   1.775       .  S
O1114      C1121   1.272       .  A
O1114     Al1122   1.941       .  S
O1115      C1124   1.260       .  A
O1115     Al1122   1.930   1_545  S
O1116     Al1122   1.855       .  S
O1117      C1124   1.253       .  A
O1118     Al1122   1.784       .  S
O1119      C1120   1.271       .  A
C1120      C1476   1.465       .  S
C1121      C1509   1.482       .  S
C1124      C1677   1.467       .  S
C1125      O1126   1.260       .  A
C1125      C1497   1.474       .  S
O1127      C1142   1.258       .  A
O1127     Al1135   1.882       .  S
C1128      O1138   1.265       .  A
C1128      O1129   1.268   1_565  A
C1128      C1500   1.478       .  S
O1129     Al1131   1.929   1_545  S
O1130      C1132   1.263       .  A
O1130     Al1131   1.910       .  S
Al1131     O1139   1.926   1_565  S
Al1131     O1141   1.906       .  S
Al1131     O1140   1.794       .  S
C1132      O1145   1.260       .  A
C1132      C1425   1.476       .  S
O1133      C1143   1.257       .  A
O1133     Al1135   1.904       .  S
O1134      C1147   1.268       .  A
O1134     Al1144   1.916       .  S
Al1135     O1148   1.912       .  S
Al1135     O1145   1.897       .  S
Al1135     O1140   1.779       .  S
O1136      C1143   1.251       .  A
O1136     Al1144   1.885       .  S
O1137      C1146   1.254       .  A
O1137     Al1144   1.892   1_545  S
O1138     Al1144   1.888       .  S
O1139      C1146   1.260       .  A
O1140     Al1144   1.790       .  S
O1141      C1142   1.258       .  A
C1143      C1437   1.481       .  S
C1146      C1536   1.470       .  S
C1147      O1148   1.267       .  A
C1147      C1449   1.469       .  S
O1149      C1164   1.265       .  A
O1149     Al1157   1.871       .  S
C1150      O1160   1.253       .  A
C1150      O1151   1.268       .  A
C1150      C1413   1.488       .  S
O1151     Al1153   1.936       .  S
O1152      C1154   1.255       .  A
O1152     Al1153   1.900       .  S
Al1153     O1161   1.867       .  S
Al1153     O1163   1.943       .  S
Al1153     O1162   1.783       .  S
C1154      O1167   1.256       .  A
C1154      C1380   1.480       .  S
O1155      C1165   1.264       .  A
O1155     Al1157   1.875       .  S
O1156      C1169   1.257       .  A
O1156     Al1166   1.910       .  S
Al1157     O1170   1.908       .  S
Al1157     O1167   1.914       .  S
Al1157     O1162   1.778       .  S
O1158      C1165   1.276       .  A
O1158     Al1166   1.947       .  S
O1159      C1168   1.262       .  A
O1159     Al1166   1.933       .  S
O1160     Al1166   1.856       .  S
O1161      C1168   1.253       .  A
O1162     Al1166   1.785       .  S
O1163      C1164   1.274       .  A
C1164      C1389   1.463       .  S
C1165      C1440   1.477       .  S
C1168      C1788   1.474       .  S
C1169      O1170   1.256       .  A
C1169      C1401   1.479       .  S
O1171      C1186   1.259       .  A
O1171     Al1179   1.891       .  S
C1172      O1182   1.265       .  A
C1172      O1173   1.266       .  A
C1172      C1404   1.477       .  S
O1173     Al1175   1.921       .  S
O1174      C1176   1.261       .  A
O1174     Al1175   1.906       .  S
Al1175     O1183   1.928       .  S
Al1175     O1185   1.910       .  S
Al1175     O1184   1.797       .  S
C1176      O1189   1.258       .  A
C1176      C1365   1.479       .  S
O1177      C1187   1.258       .  A
O1177     Al1179   1.907       .  S
O1178      C1191   1.268       .  A
O1178     Al1188   1.921       .  S
Al1179     O1192   1.901       .  S
Al1179     O1189   1.898       .  S
Al1179     O1184   1.785       .  S
O1180      C1187   1.254       .  A
O1180     Al1188   1.891       .  S
O1181      C1190   1.255       .  A
O1181     Al1188   1.892       .  S
O1182     Al1188   1.895       .  S
O1183      C1190   1.261       .  A
O1184     Al1188   1.791       .  S
O1185      C1186   1.260       .  A
C1186      C1416   1.473       .  S
C1187      C1512   1.485       .  S
C1190      C1593   1.474       .  S
C1191      O1192   1.264       .  A
C1191      C1452   1.468       .  S
O1193      C1208   1.259   1_455  A
O1193     Al1201   1.912       .  S
C1194      O1204   1.265       .  A
C1194      O1195   1.257       .  A
C1194      C1341   1.480       .  S
O1195     Al1197   1.879       .  S
O1196      C1198   1.272       .  A
O1196     Al1197   1.943   1_455  S
Al1197     O1205   1.940       .  S
Al1197     O1207   1.903       .  S
Al1197     O1206   1.786   1_655  S
C1198      O1211   1.263       .  A
C1198      C1464   1.481       .  S
O1199      C1209   1.262       .  A
O1199     Al1201   1.926       .  S
O1200      C1213   1.269       .  A
O1200     Al1210   1.941       .  S
Al1201     O1214   1.895       .  S
Al1201     O1211   1.878       .  S
Al1201     O1206   1.777       .  S
O1202      C1209   1.255       .  A
O1202     Al1210   1.884       .  S
O1203      C1212   1.255       .  A
O1203     Al1210   1.863   1_655  S
O1204     Al1210   1.927   1_655  S
O1205      C1212   1.265       .  A
O1206     Al1210   1.776       .  S
O1207      C1208   1.258       .  A
C1208      C1353   1.466       .  S
C1209      C1320   1.479       .  S
C1212      C1740   1.473       .  S
C1213      O1214   1.264       .  A
C1213      C1332   1.475       .  S
O1215      C1230   1.262       .  A
O1215     Al1223   1.876       .  S
C1216      O1226   1.257       .  A
C1216      O1217   1.269       .  A
C1216      C1356   1.479       .  S
O1217     Al1219   1.936   1_655  S
O1218      C1220   1.257       .  A
O1218     Al1219   1.898       .  S
Al1219     O1227   1.873   1_455  S
Al1219     O1229   1.937       .  S
Al1219     O1228   1.780       .  S
C1220      O1233   1.260       .  A
C1220      C1428   1.481       .  S
O1221      C1231   1.262       .  A
O1221     Al1223   1.876       .  S
O1222      C1235   1.259   1_655  A
O1222     Al1232   1.906       .  S
Al1223     O1236   1.922       .  S
Al1223     O1233   1.921       .  S
Al1223     O1228   1.777       .  S
O1224      C1231   1.274       .  A
O1224     Al1232   1.949   1_455  S
O1225      C1234   1.262       .  A
O1225     Al1232   1.935       .  S
O1226     Al1232   1.865       .  S
O1227      C1234   1.253       .  A
O1228     Al1232   1.783   1_455  S
O1229      C1230   1.270       .  A
C1230      C1473   1.467       .  S
C1231      C1305   1.482       .  S
C1234      C1569   1.473       .  S
C1235      O1236   1.260       .  A
C1235      C1344   1.472   1_455  S
O1237      C1252   1.265       .  A
O1237     Al1245   1.879       .  S
C1238      O1248   1.254       .  A
C1238      O1239   1.266       .  A
C1238      C1293   1.476       .  S
O1239     Al1241   1.932       .  S
O1240      C1242   1.254       .  A
O1240     Al1241   1.894       .  S
Al1241     O1249   1.870       .  S
Al1241     O1251   1.935       .  S
Al1241     O1250   1.781       .  S
C1242      O1255   1.256       .  A
C1242      C1368   1.474       .  S
O1243      C1253   1.263       .  A
O1243     Al1245   1.881       .  S
O1244      C1257   1.257       .  A
O1244     Al1254   1.900       .  S
Al1245     O1258   1.914       .  S
Al1245     O1255   1.916       .  S
Al1245     O1250   1.778       .  S
O1246      C1253   1.273       .  A
O1246     Al1254   1.947       .  S
O1247      C1256   1.261       .  A
O1247     Al1254   1.932       .  S
O1248     Al1254   1.852       .  S
O1249      C1256   1.253       .  A
O1250     Al1254   1.785       .  S
O1251      C1252   1.272       .  A
C1252      C1392   1.466       .  S
C1253      C1317   1.471       .  S
C1256      C1524   1.472       .  S
C1257      O1258   1.260       .  A
C1257      C1281   1.479       .  S
O1259      C1274   1.258       .  A
O1259     Al1267   1.872       .  S
C1260      O1270   1.263       .  A
C1260      O1261   1.270       .  A
C1260      C1284   1.472       .  S
O1261     Al1263   1.934       .  S
O1262      C1264   1.261       .  A
O1262     Al1263   1.909       .  S
Al1263     O1271   1.920       .  S
Al1263     O1273   1.912       .  S
Al1263     O1272   1.794       .  S
C1264      O1277   1.257       .  A
C1264      C1377   1.477       .  S
O1265      C1275   1.257       .  A
O1265     Al1267   1.901       .  S
O1266      C1279   1.268       .  A
O1266     Al1276   1.917       .  S
Al1267     O1280   1.906       .  S
Al1267     O1277   1.896       .  S
Al1267     O1272   1.776       .  S
O1268      C1275   1.254       .  A
O1268     Al1276   1.899       .  S
O1269      C1278   1.254       .  A
O1269     Al1276   1.897       .  S
O1270     Al1276   1.878       .  S
O1271      C1278   1.258       .  A
O1272     Al1276   1.792       .  S
O1273      C1274   1.261       .  A
C1275      C1308   1.482       .  S
C1278      C1656   1.470       .  S
C1279      O1280   1.266       .  A
C1279      C1329   1.466       .  S
C1281      C1282   1.404       .  A
C1281      C1286   1.411       .  A
C1282      C1283   1.393       .  A
C1282      H1287   1.084       .  S
C1283      C1284   1.409       .  A
C1283      O1288   1.373       .  S
C1284      C1285   1.403       .  A
C1285      C1286   1.403       .  A
C1285      H1289   1.083       .  S
C1286      O1290   1.371       .  S
O1288      H1292   0.992       .  S
O1290      H1291   0.992       .  S
C1293      C1294   1.404       .  A
C1293      C1298   1.412       .  A
C1294      C1295   1.405       .  A
C1294      H1299   1.083       .  S
C1295      C1296   1.412       .  A
C1296      C1297   1.401       .  A
C1297      C1298   1.390       .  A
C1297      H1301   1.084       .  S
C1298      O1302   1.373       .  S
O1300      H1304   0.992       .  S
O1302      H1303   0.992       .  S
C1305      C1306   1.403       .  A
C1305      C1310   1.414       .  A
C1306      C1307   1.398       .  A
C1306      H1311   1.084       .  S
C1307      C1308   1.415       .  A
C1307      O1312   1.372       .  S
C1308      C1309   1.403       .  A
C1309      C1310   1.398       .  A
C1309      H1313   1.083       .  S
C1310      O1314   1.372       .  S
O1312      H1316   0.992       .  S
O1314      H1315   0.992       .  S
C1317      C1318   1.399       .  A
C1317      C1322   1.409       .  A
C1318      C1319   1.398       .  A
C1318      H1323   1.084       .  S
C1319      C1320   1.413       .  A
C1319      O1324   1.372       .  S
C1320      C1321   1.405       .  A
C1321      C1322   1.399       .  A
C1321      H1325   1.084       .  S
C1322      O1326   1.372       .  S
O1324      H1328   0.992       .  S
O1326      H1327   0.992       .  S
C1329      C1334   1.406       .  A
C1330      C1331   1.402       .  A
C1331      C1332   1.410       .  A
C1331      O1336   1.373       .  S
C1332      C1333   1.403       .  A
C1333      H1337   1.084       .  S
C1334      O1338   1.373       .  S
O1336      H1340   0.992       .  S
O1338      H1339   0.992       .  S
C1341      C1342   1.407       .  A
C1341      C1346   1.410   1_655  A
C1342      C1343   1.401       .  A
C1342      H1347   1.084       .  S
C1343      C1344   1.405       .  A
C1343      O1348   1.372       .  S
C1344      C1345   1.403   1_655  A
C1345      C1346   1.400       .  A
C1345      H1349   1.084       .  S
C1346      O1350   1.371       .  S
O1348      H1352   0.992       .  S
O1350      H1351   0.991       .  S
C1353      C1358   1.407   1_655  A
C1354      C1355   1.400       .  A
C1354      H1359   1.084       .  S
C1355      C1356   1.415       .  A
C1355      O1360   1.372       .  S
C1356      C1357   1.403   1_655  A
C1357      H1361   1.084       .  S
C1358      O1362   1.372       .  S
O1360      H1364   0.992       .  S
O1362      H1363   0.992       .  S
C1365      C1366   1.407       .  A
C1365      C1370   1.407       .  A
C1366      C1367   1.404       .  A
C1366      H1371   1.084       .  S
C1367      C1368   1.407       .  A
C1367      O1372   1.372       .  S
C1368      C1369   1.403       .  A
C1369      C1370   1.400       .  A
C1369      H1373   1.084       .  S
C1370      O1374   1.371       .  S
O1372      H1376   0.991       .  S
O1374      H1375   0.992       .  S
C1377      C1378   1.404       .  A
C1377      C1382   1.407       .  A
C1378      C1379   1.403       .  A
C1378      H1383   1.084       .  S
C1379      C1380   1.409       .  A
C1379      O1384   1.372       .  S
C1380      C1381   1.406       .  A
C1381      C1382   1.404       .  A
C1381      H1385   1.084       .  S
C1382      O1386   1.371       .  S
O1384      H1388   0.992       .  S
O1386      H1387   0.992       .  S
C1389      C1390   1.401       .  A
C1389      C1394   1.408       .  A
C1390      C1391   1.398       .  A
C1390      H1395   1.084       .  S
C1391      C1392   1.408       .  A
C1391      O1396   1.373       .  S
C1392      C1393   1.401       .  A
C1393      C1394   1.398       .  A
C1393      H1397   1.084       .  S
C1394      O1398   1.373       .  S
O1396      H1400   0.992       .  S
O1398      H1399   0.992       .  S
C1401      C1402   1.403       .  A
C1401      C1406   1.412       .  A
C1402      C1403   1.403       .  A
C1402      H1407   1.083       .  S
C1403      C1404   1.411       .  A
C1403      O1408   1.371       .  S
C1404      C1405   1.401       .  A
C1405      C1406   1.397       .  A
C1405      H1409   1.084       .  S
C1406      O1410   1.373       .  S
O1408      H1412   0.992       .  S
O1410      H1411   0.992       .  S
C1413      C1414   1.406       .  A
C1413      C1418   1.420       .  A
C1414      H1419   1.083       .  S
C1415      C1416   1.409       .  A
C1415      O1420   1.371       .  S
C1417      C1418   1.395       .  A
C1417      H1421   1.084       .  S
C1418      O1422   1.373       .  S
O1420      H1424   0.991       .  S
O1422      H1423   0.992       .  S
C1425      C1426   1.402       .  A
C1425      C1430   1.409       .  A
C1426      C1427   1.403       .  A
C1426      H1431   1.084       .  S
C1427      C1428   1.412       .  A
C1427      O1432   1.372       .  S
C1428      C1429   1.404       .  A
C1429      C1430   1.402       .  A
C1429      H1433   1.084       .  S
C1430      O1434   1.372       .  S
O1432      H1436   0.992       .  S
O1434      H1435   0.992       .  S
C1437      C1438   1.403       .  A
C1437      C1442   1.415       .  A
C1438      C1439   1.399       .  A
C1438      H1443   1.084       .  S
C1439      C1440   1.413       .  A
C1439      O1444   1.372       .  S
C1440      C1441   1.400       .  A
C1441      C1442   1.395       .  A
C1441      H1445   1.084       .  S
C1442      O1446   1.372       .  S
O1444      H1448   0.992       .  S
O1446      H1447   0.992       .  S
C1449      C1454   1.408       .  A
C1450      C1451   1.402       .  A
C1450      H1455   1.084       .  S
C1451      C1452   1.409       .  A
C1451      O1456   1.372       .  S
C1452      C1453   1.402       .  A
C1453      H1457   1.084       .  S
C1454      O1458   1.372       .  S
O1456      H1460   0.992       .  S
O1458      H1459   0.992       .  S
C1461      C1462   1.403       .  A
C1461      C1466   1.403       .  A
C1462      C1463   1.400       .  A
C1462      H1467   1.084       .  S
C1463      C1464   1.411       .  A
C1463      O1468   1.371       .  S
C1464      C1465   1.407       .  A
C1465      C1466   1.397       .  A
C1465      H1469   1.083       .  S
C1466      O1470   1.371       .  S
O1468      H1472   0.991       .  S
O1470      H1471   0.992       .  S
C1473      C1474   1.401       .  A
C1473      C1478   1.410       .  A
C1474      C1475   1.397       .  A
C1474      H1479   1.084       .  S
C1475      C1476   1.409       .  A
C1475      O1480   1.372       .  S
C1476      C1477   1.401       .  A
C1477      C1478   1.398       .  A
C1477      H1481   1.084       .  S
C1478      O1482   1.372       .  S
O1480      H1484   0.991       .  S
O1482      H1483   0.991   1_455  S
C1485      C1486   1.404       .  A
C1485      C1490   1.414       .  A
C1486      C1487   1.407       .  A
C1486      H1491   1.083   1_565  S
C1487      C1488   1.414       .  A
C1488      C1489   1.400       .  A
C1489      C1490   1.392       .  A
C1489      H1493   1.084       .  S
C1490      O1494   1.373       .  S
O1492      H1496   0.991       .  S
O1494      H1495   0.992       .  S
C1497      C1498   1.403   1_565  A
C1497      C1502   1.409       .  A
C1498      C1499   1.403       .  A
C1498      H1503   1.084       .  S
C1499      C1500   1.413   1_545  A
C1499      O1504   1.371       .  S
C1500      C1501   1.402       .  A
C1501      C1502   1.394       .  A
C1501      H1505   1.084       .  S
C1502      O1506   1.373       .  S
O1504      H1508   0.992       .  S
O1506      H1507   0.992       .  S
C1509      C1510   1.402       .  A
C1509      C1514   1.413       .  A
C1510      C1511   1.396       .  A
C1510      H1515   1.084       .  S
C1511      C1512   1.415       .  A
C1511      O1516   1.372       .  S
C1512      C1513   1.404       .  A
C1513      C1514   1.401       .  A
C1513      H1517   1.083       .  S
C1514      O1518   1.371       .  S
O1516      H1520   0.992       .  S
O1518      H1519   0.992       .  S
C1521      C1522   1.403       .  A
C1521      C1526   1.409       .  A
C1522      C1523   1.399       .  A
C1522      H1527   1.084       .  S
C1523      C1524   1.407       .  A
C1523      O1528   1.372       .  S
C1524      C1525   1.403       .  A
C1525      C1526   1.406       .  A
C1525      H1529   1.084       .  S
C1526      O1530   1.372       .  S
O1528      H1532   0.992       .  S
O1530      H1531   0.992       .  S
C1533      C1534   1.404       .  A
C1533      C1538   1.406       .  A
C1534      C1535   1.403       .  A
C1534      H1539   1.084       .  S
C1535      C1536   1.407       .  A
C1535      O1540   1.373       .  S
C1536      C1537   1.404       .  A
C1537      C1538   1.402       .  A
C1537      H1541   1.084       .  S
C1538      O1542   1.372       .  S
O1540      H1544   0.992       .  S
O1542      H1543   0.991       .  S
C1545      C1546   1.405       .  A
C1545      C1550   1.404       .  A
C1546      C1547   1.404       .  A
C1546      H1551   1.084       .  S
C1547      C1548   1.410       .  A
C1547      O1552   1.372       .  S
C1548      C1549   1.407       .  A
C1549      C1550   1.401       .  A
C1549      H1553   1.084       .  S
C1550      O1554   1.371       .  S
O1552      H1556   0.992       .  S
O1554      H1555   0.992       .  S
C1557      C1558   1.399       .  A
C1557      C1562   1.409       .  A
C1558      C1559   1.402       .  A
C1558      H1563   1.084       .  S
C1559      C1560   1.414       .  A
C1559      O1564   1.372       .  S
C1560      C1561   1.404       .  A
C1561      C1562   1.404       .  A
C1561      H1565   1.084       .  S
C1562      O1566   1.372       .  S
O1564      H1568   0.992       .  S
O1566      H1567   0.992       .  S
C1569      C1570   1.403       .  A
C1569      C1574   1.409       .  A
C1570      C1571   1.403       .  A
C1570      H1575   1.084       .  S
C1571      C1572   1.408       .  A
C1571      O1576   1.371       .  S
C1572      C1573   1.401       .  A
C1573      C1574   1.400       .  A
C1573      H1577   1.084       .  S
C1574      O1578   1.372       .  S
O1576      H1580   0.991       .  S
O1578      H1579   0.991       .  S
C1581      C1582   1.408       .  A
C1581      C1586   1.409       .  A
C1582      C1583   1.405       .  A
C1582      H1587   1.084       .  S
C1583      C1584   1.407       .  A
C1583      O1588   1.372       .  S
C1584      C1585   1.403       .  A
C1585      C1586   1.402       .  A
C1585      H1589   1.084       .  S
C1586      O1590   1.371       .  S
O1588      H1592   0.992       .  S
O1590      H1591   0.992       .  S
C1593      C1594   1.405       .  A
C1593      C1598   1.406       .  A
C1594      C1595   1.404       .  A
C1594      H1599   1.084       .  S
C1595      C1596   1.406       .  A
C1595      O1600   1.372       .  S
C1596      C1597   1.405       .  A
C1597      C1598   1.404       .  A
C1597      H1601   1.084       .  S
C1598      O1602   1.371       .  S
O1600      H1604   0.992       .  S
O1602      H1603   0.992       .  S
C1605      C1606   1.404       .  A
C1605      C1610   1.408       .  A
C1606      C1607   1.398       .  A
C1606      H1611   1.084       .  S
C1607      C1608   1.409       .  A
C1607      O1612   1.372       .  S
C1608      C1609   1.404       .  A
C1609      C1610   1.401       .  A
C1609      H1613   1.084       .  S
C1610      O1614   1.371       .  S
O1612      H1616   0.991       .  S
O1614      H1615   0.992       .  S
C1617      C1622   1.409       .  A
C1618      C1619   1.397       .  A
C1618      H1623   1.084       .  S
C1619      C1620   1.407       .  A
C1619      O1624   1.372       .  S
C1620      C1621   1.401       .  A
C1621      H1625   1.084       .  S
C1622      O1626   1.371       .  S
O1624      H1628   0.991       .  S
O1626      H1627   0.991       .  S
C1629      C1634   1.409   1_565  A
C1630      C1631   1.399       .  A
C1630      H1635   1.084   1_556  S
C1631      C1632   1.413       .  A
C1631      O1636   1.371       .  S
C1632      C1633   1.404   1_565  A
C1633      H1637   1.084       .  S
C1634      O1638   1.373       .  S
O1636      H1640   0.991       .  S
O1638      H1639   0.992       .  S
C1641      C1642   1.408       .  A
C1641      C1646   1.416       .  A
C1642      C1643   1.405       .  A
C1642      H1647   1.083       .  S
C1643      C1644   1.408       .  A
C1643      O1648   1.371       .  S
C1644      C1645   1.398       .  A
C1645      C1646   1.391       .  A
C1645      H1649   1.084   1_565  S
C1646      O1650   1.372       .  S
O1648      H1652   0.991       .  S
O1650      H1651   0.992       .  S
C1653      C1654   1.403       .  A
C1653      C1658   1.408       .  A
C1654      C1655   1.401       .  A
C1654      H1659   1.084       .  S
C1655      C1656   1.406       .  A
C1655      O1660   1.372       .  S
C1656      C1657   1.405       .  A
C1657      C1658   1.404       .  A
C1657      H1661   1.084       .  S
C1658      O1662   1.371       .  S
O1660      H1664   0.992       .  S
O1662      H1663   0.991       .  S
C1665      C1666   1.401       .  A
C1665      C1670   1.411       .  A
C1666      C1667   1.397       .  A
C1666      H1671   1.084       .  S
C1667      C1668   1.415       .  A
C1667      O1672   1.372       .  S
C1668      C1669   1.404       .  A
C1669      C1670   1.399       .  A
C1669      H1673   1.083       .  S
C1670      O1674   1.372       .  S
O1672      H1676   0.992       .  S
O1674      H1675   0.992       .  S
C1677      C1678   1.401       .  A
C1677      C1682   1.407       .  A
C1678      C1679   1.394       .  A
C1678      H1683   1.084       .  S
C1679      C1680   1.406       .  A
C1679      O1684   1.372       .  S
C1680      C1681   1.404       .  A
C1681      C1682   1.405       .  A
C1681      H1685   1.084       .  S
C1682      O1686   1.372       .  S
O1684      H1688   0.992       .  S
O1686      H1687   0.992       .  S
C1689      C1690   1.403       .  A
C1689      C1694   1.409       .  A
C1690      C1691   1.400       .  A
C1690      H1695   1.084       .  S
C1691      C1692   1.412       .  A
C1691      O1696   1.372       .  S
C1692      C1693   1.403       .  A
C1693      C1694   1.398       .  A
C1693      H1697   1.084       .  S
C1694      O1698   1.371       .  S
O1696      H1700   0.992       .  S
O1698      H1699   0.992       .  S
C1701      C1702   1.403       .  A
C1701      C1706   1.405       .  A
C1702      C1703   1.403       .  A
C1702      H1707   1.084       .  S
C1703      C1704   1.410       .  A
C1703      O1708   1.371       .  S
C1704      C1705   1.403       .  A
C1705      C1706   1.398       .  A
C1705      H1709   1.084       .  S
C1706      O1710   1.373       .  S
O1708      H1712   0.991       .  S
O1710      H1711   0.992       .  S
C1713      C1714   1.406   1_655  A
C1713      C1718   1.408       .  A
C1714      C1715   1.403       .  A
C1714      H1719   1.084       .  S
C1715      C1716   1.406   1_455  A
C1716      C1717   1.404       .  A
C1717      C1718   1.400       .  A
C1717      H1721   1.084       .  S
C1718      O1722   1.372       .  S
O1722      H1723   0.991       .  S
C1725      C1726   1.407   1_655  A
C1725      C1730   1.408       .  A
C1726      C1727   1.402       .  A
C1726      H1731   1.084       .  S
C1727      C1728   1.405   1_455  A
C1727      O1732   1.371       .  S
C1728      C1729   1.404       .  A
C1729      C1730   1.401       .  A
C1729      H1733   1.084       .  S
C1730      O1734   1.372       .  S
O1732      H1736   0.992       .  S
O1734      H1735   0.991       .  S
C1737      C1738   1.402       .  A
C1737      C1742   1.407       .  A
C1738      C1739   1.395       .  A
C1738      H1743   1.085       .  S
C1739      C1740   1.408       .  A
C1739      O1744   1.374       .  S
C1740      C1741   1.406       .  A
C1741      C1742   1.407       .  A
C1741      H1745   1.083       .  S
C1742      O1746   1.370       .  S
O1744      H1748   0.992       .  S
O1746      H1747   0.991       .  S
C1749      C1750   1.401       .  A
C1749      C1754   1.411       .  A
C1750      C1751   1.400       .  A
C1750      H1755   1.084       .  S
C1751      C1752   1.413       .  A
C1751      O1756   1.371       .  S
C1752      C1753   1.404       .  A
C1753      C1754   1.401       .  A
C1753      H1757   1.084       .  S
C1754      O1758   1.372       .  S
O1756      H1760   0.992       .  S
O1758      H1759   0.992       .  S
C1761      C1762   1.405       .  A
C1761      C1766   1.409       .  A
C1762      C1763   1.397       .  A
C1762      H1767   1.084       .  S
C1763      C1764   1.408       .  A
C1763      O1768   1.372       .  S
C1764      C1765   1.404       .  A
C1765      C1766   1.399       .  A
C1765      H1769   1.084       .  S
C1766      O1770   1.372       .  S
O1768      H1772   0.992       .  S
O1770      H1771   0.992       .  S
C1773      C1774   1.403       .  A
C1773      C1778   1.408       .  A
C1774      H1779   1.084       .  S
C1775      C1776   1.408       .  A
C1775      O1780   1.372       .  S
C1777      C1778   1.399       .  A
C1777      H1781   1.084       .  S
C1778      O1782   1.372       .  S
O1780      H1784   0.991       .  S
O1782      H1783   0.996       .  S
C1785      C1786   1.401       .  A
C1785      C1790   1.408       .  A
C1786      C1787   1.400       .  A
C1786      H1791   1.084       .  S
C1787      C1788   1.409       .  A
C1787      O1792   1.373       .  S
C1788      C1789   1.404       .  A
C1789      C1790   1.405       .  A
C1789      H1793   1.084       .  S
C1790      O1794   1.371       .  S
O1792      H1796   0.992       .  S
O1794      H1795   0.991       .  S
C1797      C1798   1.408       .  A
C1797      C1802   1.411       .  A
C1798      C1799   1.398       .  A
C1798      H1803   1.083       .  S
C1799      C1800   1.408       .  A
C1799      O1804   1.372       .  S
C1800      C1801   1.406       .  A
C1801      C1802   1.400       .  A
C1801      H1805   1.084       .  S
C1802      O1806   1.371       .  S
O1804      H1808   0.992       .  S
O1806      H1807   0.992       .  S
C1809      C1810   1.400       .  A
C1809      C1814   1.406       .  A
C1810      C1811   1.399       .  A
C1810      H1815   1.084       .  S
C1811      C1812   1.410       .  A
C1811      O1816   1.373       .  S
C1812      C1813   1.403       .  A
C1813      C1814   1.399       .  A
C1813      H1817   1.084       .  S
C1814      O1818   1.372       .  S
O1816      H1820   0.992       .  S
O1818      H1819   0.992       .  S
C1821      C1822   1.401       .  A
C1821      C1826   1.406       .  A
C1822      C1823   1.404       .  A
C1822      H1827   1.084       .  S
C1823      C1824   1.414       .  A
C1823      O1828   1.371       .  S
C1824      C1825   1.408       .  A
C1825      C1826   1.401       .  A
C1825      H1829   1.083       .  S
C1826      O1830   1.372       .  S
O1828      H1832   0.992       .  S
O1830      H1831   0.992       .  S
C1833      C1834   1.402       .  A
C1833      C1838   1.410       .  A
C1834      C1835   1.393   1_556  A
C1834      H1839   1.084       .  S
C1835      O1840   1.373       .  S
C1836      C1837   1.404       .  A
C1837      H1841   1.084       .  S
C1838      O1842   1.371       .  S
O1840      H1844   0.992       .  S
O1842      H1843   0.992       .  S
C1845      C1846   1.400       .  A
C1845      C1850   1.413       .  A
C1846      C1847   1.391       .  A
C1846      H1851   1.084       .  S
C1847      C1848   1.414       .  A
C1847      O1852   1.373       .  S
C1848      C1849   1.405       .  A
C1849      C1850   1.408       .  A
C1849      H1853   1.083       .  S
C1850      O1854   1.371       .  S
O1852      H1856   0.992       .  S
O1854      H1855   0.992       .  S
