geometry optimzed in LAMMPS
_audit_creation_date              2020-12-01 
_audit_creation_method            'lammps2cif' 
_symmetry_space_group_name_H-M    'P1' 
_symmetry_Int_Tables_number       1 
_symmetry_cell_setting            triclinic 
loop_ 
_symmetry_equiv_pos_as_xyz 
  x,y,z 
_cell_length_a                    45.234123 
_cell_length_b                    45.11909985896041 
_cell_length_c                    32.63062573087083 
_cell_angle_alpha                 89.47397194823542 
_cell_angle_beta                  90.14003206176557 
_cell_angle_gamma                 89.88739990605022 
loop_ 
_atom_site_label 
_atom_site_type_symbol 
_atom_site_fract_x 
_atom_site_fract_y 
_atom_site_fract_z 
_atom_site_charge 
Fe1        Fe  0.31380832  0.49633722  0.39340918     1.65800
Fe2        Fe  0.38038790  0.47039943  0.36538304     1.73200
Fe3        Fe  0.32326644  0.42375685  0.38057188     1.54400
O4          O  0.30248030  0.43469023  0.43783296    -0.79300
O5          O  0.38159237  0.44154005  0.31543236    -0.77700
O6          O  0.31377265  0.48221224  0.45277875    -0.81900
O7          O  0.27578019  0.47318892  0.38598268    -0.76700
O8          O  0.35790396  0.40681750  0.41591162    -0.78500
O9          O  0.36437681  0.50434126  0.32822360    -0.81200
C10         C  0.27107032  0.46070792  0.35267674     0.99500
C11         C  0.30597594  0.45612059  0.46357510     1.07000
O12         O  0.34004375  0.46280971  0.38060806    -1.10200
O13         O  0.38549988  0.49844854  0.41467636    -0.72600
O14         O  0.34620416  0.52645852  0.40463922    -0.76100
O15         O  0.28805118  0.43957013  0.34215189    -0.76800
C16         C  0.37184215  0.52267545  0.41846741     0.98400
O17         O  0.31518417  0.50646008  0.33208478    -0.74800
O18         O  0.39614797  0.43715215  0.40221560    -0.80000
C19         C  0.36881399  0.41720549  0.30699799     1.01100
C20         C  0.38494604  0.41446240  0.41933487     1.07000
O21         O  0.34591707  0.40842285  0.32693965    -0.75600
C22         C  0.33887748  0.50351778  0.31155919     1.05300
Fe23       Fe  0.33613044  0.49565902  0.64992505     1.65800
Fe24       Fe  0.40450999  0.46389610  0.65258826     1.73200
Fe25       Fe  0.34267145  0.42181282  0.65921011     1.54400
O26         O  0.30088383  0.43874777  0.68069430    -0.79300
O27         O  0.40642212  0.43372021  0.60659006    -0.77700
O28         O  0.31427344  0.48240210  0.70057496    -0.81900
O29         O  0.30837479  0.47431871  0.60714746    -0.76700
O30         O  0.36289279  0.41475799  0.71705100    -0.78500
O31         O  0.40384374  0.49750950  0.60808144    -0.81200
C32         C  0.31255000  0.45059106  0.58648687     0.99500
C33         C  0.29416966  0.46434881  0.69424989     1.07000
O34         O  0.36143139  0.46070984  0.65359548    -1.10200
O35         O  0.40552908  0.49563619  0.69681060    -0.72600
O36         O  0.36316427  0.51783234  0.68976296    -0.76100
O37         O  0.32640089  0.42811006  0.60077242    -0.76800
C38         C  0.38097315  0.50281810  0.71152827     0.98400
O39         O  0.35709484  0.51294410  0.60033992    -0.74800
O40         O  0.40852942  0.43040413  0.69917885    -0.80000
C41         C  0.40038749  0.40688479  0.61300753     1.01100
C42         C  0.39116940  0.41551347  0.72290447     1.07000
O43         O  0.37881660  0.39889621  0.63529630    -0.75600
C44         C  0.38411444  0.51384124  0.59122599     1.05300
Fe45       Fe  0.15282097  0.46535889  0.36319884     1.65800
Fe46       Fe  0.08277752  0.99848357  0.36447297     1.73200
Fe47       Fe  0.14535186  0.03980713  0.36174102     1.54400
O48         O  0.16529690  0.03241683  0.41800627    -0.79300
O49         O  0.07791992  0.03600753  0.32400807    -0.77700
O50         O  0.18011734  0.98516163  0.41312788    -0.81900
O51         O  0.17396090  0.97565108  0.32236139    -0.76700
O52         O  0.11042938  0.06063770  0.39273490    -0.78500
O53         O  0.08515634  0.47109331  0.30726774    -0.81200
C54         C  0.19244475  0.99619877  0.32286559     0.99500
C55         C  0.17932162  0.00993498  0.43171485     1.07000
O56         O  0.12617312  0.00129196  0.36589848    -1.10200
O57         O  0.08446067  0.46062042  0.39498978    -0.72600
O58         O  0.13067225  0.44933748  0.41327349    -0.76100
O59         O  0.18504344  0.02237387  0.33423946    -0.76800
C60         C  0.10311901  0.44536468  0.41550946     0.98400
O61         O  0.12390957  0.44493282  0.32402570    -0.74800
O62         O  0.08198323  0.02374399  0.41546695    -0.80000
C63         C  0.09504793  0.05127029  0.30056118     1.01100
C64         C  0.08961168  0.05055571  0.41522150     1.07000
O65         O  0.12335587  0.05039505  0.30548319    -0.75600
C66         C  0.10989084  0.46042427  0.29785181     1.05300
Fe67       Fe  0.16500699  0.46684513  0.61357499     1.65800
Fe68       Fe  0.10523841  0.99936785  0.64816142     1.73200
Fe69       Fe  0.16637372  0.04018428  0.62992428     1.54400
O70         O  0.20483929  0.02272094  0.66058212    -0.79300
O71         O  0.09466529  0.02187377  0.59657006    -0.77700
O72         O  0.20161061  0.97335728  0.65443858    -0.81900
O73         O  0.18900358  0.98314924  0.56672604    -0.76700
O74         O  0.14976526  0.05496788  0.68681046    -0.78500
O75         O  0.09536724  0.46270336  0.61492454    -0.81200
C76         C  0.19039312  0.00909704  0.55189550     0.99500
C77         C  0.21437867  0.99617594  0.66750364     1.07000
O78         O  0.14682247  0.00207739  0.63182266    -1.10200
O79         O  0.11853439  0.97706456  0.69888120    -0.72600
O80         O  0.14316360  0.44855560  0.66362738    -0.76100
O81         O  0.18345268  0.03201650  0.57200312    -0.76800
C82         C  0.13621576  0.46353316  0.69504732     0.98400
O83         O  0.13262547  0.45668471  0.57290485    -0.74800
O84         O  0.10367656  0.03898652  0.68218410    -0.80000
C85         C  0.10548581  0.04620981  0.58391014     1.01100
C86         C  0.12275315  0.05627072  0.69778988     1.07000
O87         O  0.12937347  0.05785794  0.59793694    -0.75600
C88         C  0.10799055  0.44882252  0.58629765     1.05300
Fe89       Fe  0.34420665  0.46713958  0.87148734     1.65800
Fe90       Fe  0.40660755  0.00420620  0.86311417     1.73200
Fe91       Fe  0.34288309  0.04336514  0.85216675     1.54400
O92         O  0.30291588  0.02288266  0.82873294    -0.79300
O93         O  0.40583141  0.03469812  0.90881436    -0.77700
O94         O  0.31897908  0.97823219  0.81681735    -0.81900
O95         O  0.30920002  0.99221011  0.90759192    -0.76700
O96         O  0.36440007  0.04924825  0.79474393    -0.78500
O97         O  0.41179857  0.46908761  0.90597132    -0.81200
C98         C  0.31180674  0.01696605  0.92617642     0.99500
C99         C  0.29813423  0.99609808  0.81770242     1.07000
O100        O  0.36335342  0.00584021  0.86188367    -1.10200
O101        O  0.40919780  0.97284781  0.81833402    -0.72600
O102        O  0.37574614  0.44442235  0.83883916    -0.76100
O103        O  0.32494142  0.03921070  0.91030136    -0.76800
C104        C  0.38930309  0.45767854  0.81001564     0.98400
O105        O  0.36556876  0.46061034  0.92555259    -0.74800
O106        O  0.41027413  0.03765005  0.81660311    -0.80000
C107        C  0.39940763  0.06125601  0.90030857     1.01100
C108        C  0.39281832  0.05022100  0.79051553     1.07000
O109        O  0.37774959  0.06815976  0.87703087    -0.75600
C110        C  0.39279552  0.45552514  0.92805115     1.05300
Fe111      Fe  0.31098923  0.47403449  0.11791599     1.65800
Fe112      Fe  0.37649196  0.00030817  0.14988722     1.73200
Fe113      Fe  0.31948308  0.04717993  0.13228478     1.54400
O114        O  0.29933556  0.03575224  0.07446360    -0.79300
O115        O  0.37684071  0.02948436  0.19930252    -0.77700
O116        O  0.31073877  0.98796450  0.06106010    -0.81900
O117        O  0.27251819  0.99868264  0.12608031    -0.76700
O118        O  0.35447251  0.06356149  0.09736269    -0.78500
O119        O  0.36129300  0.46554148  0.18171324    -0.81200
C120        C  0.26756933  0.01035231  0.15972438     0.99500
C121        C  0.30317263  0.01399903  0.04933716     1.07000
O122        O  0.33638473  0.00809483  0.13332669    -1.10200
O123        O  0.38246439  0.47193362  0.09611484    -0.72600
O124        O  0.34360040  0.44374014  0.10767141    -0.76100
O125        O  0.28410818  0.03166201  0.17068869    -0.76800
C126        C  0.36903764  0.44750896  0.09320984     0.98400
O127        O  0.31220022  0.46468662  0.17973878    -0.74800
O128        O  0.39261204  0.03328931  0.11297265    -0.80000
C129        C  0.36400737  0.05394036  0.20695165     1.01100
C130        C  0.38155486  0.05573214  0.09480959     1.07000
O131        O  0.34154072  0.06289859  0.18607051    -0.75600
C132        C  0.33635214  0.46758298  0.19938818     1.05300
Fe133      Fe  0.18377866  0.48829963  0.88336043     1.65800
Fe134      Fe  0.11846290  0.46055596  0.85390193     1.73200
Fe135      Fe  0.17447761  0.41519453  0.88181526     1.54400
O136        O  0.21066776  0.42748241  0.84273666    -0.79300
O137        O  0.10107957  0.43017688  0.89372183    -0.77700
O138        O  0.22149044  0.46397819  0.88261624    -0.81900
O139        O  0.18156447  0.47885824  0.94440079    -0.76700
O140        O  0.15339299  0.39535440  0.83020748    -0.78500
O141        O  0.11074931  0.49220643  0.89809516    -0.81200
C142        C  0.18946158  0.45378159  0.95928116     0.99500
C143        C  0.22708014  0.44956894  0.85118079     1.07000
O144        O  0.15791262  0.45410058  0.87415267    -1.10200
O145        O  0.13631838  0.49205906  0.81521431    -0.72600
O146        O  0.18520372  0.49298642  0.82055153    -0.76100
O147        O  0.19427158  0.43069034  0.93715926    -0.76800
C148        C  0.16184465  0.48865944  0.79979680     0.98400
O149        O  0.15060397  0.51931560  0.88757509    -0.74800
O150        O  0.12038818  0.42857785  0.80790890    -0.80000
C151        C  0.11174866  0.41112458  0.91856949     1.01100
C152        C  0.13279123  0.40330391  0.80532780     1.07000
O153        O  0.13881088  0.40290114  0.91897876    -0.75600
C154        C  0.12429606  0.51664118  0.89962095     1.05300
Fe155      Fe  0.14904608  0.49941432  0.13848557     1.65800
Fe156      Fe  0.08298693  0.46552308  0.15005238     1.73200
Fe157      Fe  0.14666806  0.42557733  0.15322008     1.54400
O158        O  0.16460540  0.43190357  0.09592833    -0.79300
O159        O  0.08012092  0.42894839  0.19176572    -0.77700
O160        O  0.17914404  0.47921288  0.09885353    -0.81900
O161        O  0.17393907  0.49154785  0.18876121    -0.76700
O162        O  0.11182453  0.40302547  0.12439074    -0.78500
O163        O  0.08266938  0.49410422  0.19835960    -0.81200
C164        C  0.19307025  0.47154847  0.18877841     0.99500
C165        C  0.17768843  0.45430598  0.08077632     1.07000
O166        O  0.12637088  0.46349768  0.14802054    -1.10200
O167        O  0.08017754  0.50207518  0.11094211    -0.72600
O168        O  0.12535270  0.51024140  0.08708430    -0.76100
O169        O  0.18642499  0.44491160  0.17850197    -0.76800
C170        C  0.09808173  0.51579900  0.08763489     0.98400
O171        O  0.11953049  0.52069352  0.17611094    -0.74800
O172        O  0.08238225  0.43892871  0.10044528    -0.80000
C173        C  0.09795836  0.41432530  0.21504010     1.01100
C174        C  0.09093473  0.41235522  0.10121545     1.07000
O175        O  0.12618329  0.41597888  0.21021074    -0.75600
C176        C  0.10715519  0.50635734  0.20497297     1.05300
Fe177      Fe  0.97574032  0.30717803  0.39299343     1.65800
Fe178      Fe  0.00165641  0.37504256  0.36768850     1.73200
Fe179      Fe  0.04807113  0.31657146  0.37582252     1.54400
O180        O  0.03893047  0.29210634  0.43111028    -0.79300
O181        O  0.02877720  0.37782777  0.31564587    -0.77700
O182        O  0.99236648  0.30297108  0.45098495    -0.81900
O183        O  0.99774162  0.26930797  0.37916596    -0.76700
O184        O  0.06614704  0.34937583  0.41312997    -0.78500
O185        O  0.96586492  0.36046053  0.33388563    -0.81200
C186        C  0.00995207  0.26630520  0.34516854     0.99500
C187        C  0.01852109  0.29377313  0.45867353     1.07000
O188        O  0.00920827  0.33375714  0.37990465    -1.10200
O189        O  0.97548940  0.37893101  0.41931974    -0.72600
O190        O  0.44780698  0.33987720  0.40847681    -0.76100
O191        O  0.03101955  0.28366103  0.33530565    -0.76800
C192        C  0.45226586  0.36526949  0.42288323     0.98400
O193        O  0.46382992  0.31165841  0.33051307    -0.74800
O194        O  0.03652191  0.38889571  0.40231371    -0.80000
C195        C  0.05302743  0.36545504  0.30551725     1.01100
C196        C  0.05927446  0.37663113  0.41785197     1.07000
O197        O  0.06225034  0.34186410  0.32374592    -0.75600
C198        C  0.46804888  0.33635227  0.31247954     1.05300
Fe199      Fe  0.99777341  0.30516221  0.66036701     1.65800
Fe200      Fe  0.02941839  0.37183800  0.66899455     1.73200
Fe201      Fe  0.07163060  0.31308884  0.64887848     1.54400
O202        O  0.06011536  0.26904070  0.66912045    -0.79300
O203        O  0.04622451  0.38002879  0.61281659    -0.77700
O204        O  0.01831379  0.27759869  0.69993540    -0.81900
O205        O  0.01128649  0.28426331  0.60563357    -0.76700
O206        O  0.08763129  0.32827567  0.70651011    -0.78500
O207        O  0.98752255  0.37609074  0.64360350    -0.81200
C208        C  0.03276993  0.28918073  0.58084894     0.99500
C209        C  0.03670709  0.25964053  0.68681395     1.07000
O210        O  0.03265557  0.32998984  0.65901046    -1.10200
O211        O  0.01323469  0.36275895  0.72463709    -0.72600
O212        O  0.48374929  0.32381422  0.71223070    -0.76100
O213        O  0.05709976  0.30081570  0.59179332    -0.76800
C214        C  0.99700154  0.34198645  0.73757550     0.98400
O215        O  0.47370119  0.33095831  0.62055118    -0.74800
O216        O  0.07114545  0.37463589  0.69785988    -0.80000
C217        C  0.07274044  0.37411077  0.60450987     1.01100
C218        C  0.08804364  0.35595674  0.71604828     1.07000
O219        O  0.08685500  0.35269117  0.62147146    -0.75600
C220        C  0.47059374  0.35861962  0.62187339     1.05300
Fe221      Fe  0.50421122  0.14501540  0.36163143     1.65800
Fe222      Fe  0.46768048  0.08014600  0.35302966     1.71600
Fe223      Fe  0.43026625  0.14505163  0.35733979     1.54400
O224        O  0.44157487  0.16144127  0.41409800    -0.79300
O225        O  0.42833955  0.07893582  0.31721606    -0.77700
O226        O  0.48818566  0.17570868  0.40377802    -0.81900
O227        O  0.49465392  0.17120152  0.31292312    -0.76700
O228        O  0.40906093  0.11045125  0.38909329    -0.78500
O229        O  0.49125932  0.08064318  0.29973193    -0.81200
C230        C  0.47476390  0.19045496  0.31506487     0.99500
C231        C  0.46543669  0.17315153  0.42648841     1.07000
O232        O  0.46724337  0.12361191  0.35637994    -1.10200
O233        O  0.50666685  0.07586284  0.38702316    -0.72600
O234        O  0.01638643  0.12079017  0.41071062    -0.76100
O235        O  0.44901709  0.18421628  0.32937510    -0.76800
C236        C  0.02055841  0.09328104  0.41060998     0.98400
O237        O  0.52153263  0.11456826  0.32158544    -0.74800
O238        O  0.44511532  0.07888434  0.40648552    -0.80000
C239        C  0.41343092  0.09777233  0.29590329     1.01100
C240        C  0.41923392  0.08881213  0.41039248     1.07000
O241        O  0.41619386  0.12586149  0.30143335    -0.75600
C242        C  0.50531326  0.10423572  0.29331755     1.05300
Fe243      Fe  0.52256233  0.13246535  0.59838709     1.65800
Fe244      Fe  0.48577081  0.06957950  0.62549784     1.73200
Fe245      Fe  0.45084397  0.13680783  0.62644761     1.54400
O246        O  0.47528075  0.17236416  0.65474705    -0.79300
O247        O  0.45658680  0.06789712  0.57851723    -0.77700
O248        O  0.52311393  0.16415291  0.64119173    -0.81900
O249        O  0.50314991  0.16089974  0.55637774    -0.76700
O250        O  0.44173120  0.11669987  0.68432771    -0.78500
O251        O  0.52086678  0.06166828  0.58598993    -0.81200
C252        C  0.47637377  0.16533936  0.54652232     0.99500
C253        C  0.50294811  0.17916197  0.65743995     1.07000
O254        O  0.48615128  0.11352607  0.61746753    -1.10200
O255        O  0.51640776  0.07109520  0.67168789    -0.72600
O256        O  0.04299894  0.10644385  0.64072498    -0.76100
O257        O  0.45474790  0.15710508  0.56879102    -0.76800
C258        C  0.52883967  0.09597982  0.67204376     0.98400
O259        O  0.02445756  0.10391578  0.55183397    -0.74800
O260        O  0.45116493  0.06960362  0.66911904    -0.80000
C261        C  0.43126428  0.07984281  0.57848204     1.01100
C262        C  0.43882783  0.08887737  0.69185452     1.07000
O263        O  0.42501123  0.10367970  0.59791674    -0.75600
C264        C  0.03367590  0.07842538  0.55994184     1.05300
Fe265      Fe  0.52094224  0.32990209  0.91250660     1.65800
Fe266      Fe  0.48601864  0.39326279  0.88413603     1.73200
Fe267      Fe  0.44906279  0.32748213  0.88448485     1.54400
O268        O  0.47206583  0.29111715  0.85530776    -0.79300
O269        O  0.45919802  0.39577018  0.93318465    -0.77700
O270        O  0.51970599  0.29683889  0.87212202    -0.81900
O271        O  0.50074496  0.30399849  0.95679115    -0.76700
O272        O  0.44014117  0.34781337  0.82699829    -0.78500
O273        O  0.52314405  0.40079260  0.92004895    -0.81200
C274        C  0.47376235  0.29914975  0.96507157     0.99500
C275        C  0.49949073  0.28299726  0.85426325     1.07000
O276        O  0.48508427  0.34952207  0.89314044    -1.10200
O277        O  0.51438578  0.38946510  0.83600774    -0.72600
O278        O  0.04115744  0.35671915  0.86875015    -0.76100
O279        O  0.45258889  0.30660345  0.94141696    -0.76800
C280        C  0.52636117  0.36423288  0.83606606     0.98400
O281        O  0.02539277  0.36169820  0.95840900    -0.74800
O282        O  0.44954838  0.39451403  0.84352813    -0.80000
C283        C  0.43330660  0.38525461  0.93405496     1.01100
C284        C  0.43710244  0.37565476  0.82036298     1.07000
O285        O  0.42525971  0.36197215  0.91431800    -0.75600
C286        C  0.03579217  0.38626515  0.94809856     1.05300
Fe287      Fe  0.50459346  0.32126505  0.14605112     1.65800
Fe288      Fe  0.47040868  0.38746489  0.15709389     1.73200
Fe289      Fe  0.43093325  0.32364849  0.15554947     1.54400
O290        O  0.43946479  0.30688307  0.09791757    -0.79300
O291        O  0.43271883  0.38996727  0.19601257    -0.77700
O292        O  0.48592664  0.29099425  0.10563062    -0.81900
O293        O  0.49614787  0.29547990  0.19540468    -0.76700
O294        O  0.40931272  0.35913074  0.12591824    -0.78500
O295        O  0.49671487  0.38649004  0.20806919    -0.81200
C296        C  0.47611654  0.27644622  0.19358572     0.99500
C297        C  0.46243994  0.29399906  0.08444262     1.07000
O298        O  0.46852797  0.34395468  0.15389281    -1.10200
O299        O  0.50809369  0.39027431  0.12050194    -0.72600
O300        O  0.01511722  0.34412724  0.09758175    -0.76100
O301        O  0.44987191  0.28346677  0.18147617    -0.76800
C302        C  0.02149023  0.37114091  0.09936401     0.98400
O303        O  0.52455079  0.35103222  0.18473972    -0.74800
O304        O  0.44533112  0.38962831  0.10567334    -0.80000
C305        C  0.41766412  0.37171978  0.21795494     1.01100
C306        C  0.41893279  0.38081608  0.10436454     1.07000
O307        O  0.41945462  0.34347528  0.21242644    -0.75600
C308        C  0.50980144  0.36222411  0.21386804     1.05300
Fe309      Fe  0.99842345  0.16122449  0.84668736     1.65800
Fe310      Fe  0.02755427  0.09282162  0.84156478     1.73200
Fe311      Fe  0.07197423  0.15101465  0.85667740     1.54400
O312        O  0.06097914  0.19615455  0.83993571    -0.79300
O313        O  0.04856347  0.08477190  0.89572005    -0.77700
O314        O  0.02070731  0.18711520  0.80721886    -0.81900
O315        O  0.01325787  0.18049951  0.90228400    -0.76700
O316        O  0.08485545  0.13538121  0.79757468    -0.78500
O317        O  0.98758819  0.09036112  0.87233981    -0.81200
C318        C  0.03505104  0.17469901  0.92658318     0.99500
C319        C  0.03756077  0.20551469  0.82231451     1.07000
O320        O  0.03219677  0.13485152  0.84904218    -1.10200
O321        O  0.00763561  0.10007970  0.78712526    -0.72600
O322        O  0.48537870  0.14272009  0.79173100    -0.76100
O323        O  0.05912769  0.16266295  0.91489672    -0.76800
C324        C  0.99575255  0.12289137  0.77151887     0.98400
O325        O  0.47212115  0.13596560  0.88224763    -0.74800
O326        O  0.06696684  0.08946657  0.80758175    -0.80000
C327        C  0.07609809  0.08874463  0.89736266     1.01100
C328        C  0.08360445  0.10758653  0.78805679     1.07000
O329        O  0.08851494  0.11088895  0.88020189    -0.75600
C330        C  0.47009492  0.10829825  0.88668768     1.05300
Fe331      Fe  0.97681388  0.15934581  0.11403787     1.65800
Fe332      Fe  0.99955870  0.09096880  0.14282783     1.73200
Fe333      Fe  0.04836043  0.14706285  0.13325537     1.54400
O334        O  0.04060011  0.17124629  0.07708720    -0.79300
O335        O  0.02562063  0.08836810  0.19657262    -0.77700
O336        O  0.99397062  0.16172339  0.05617935    -0.81900
O337        O  0.00043948  0.19637634  0.12693902    -0.76700
O338        O  0.06480717  0.11319312  0.09651432    -0.78500
O339        O  0.96344539  0.10746982  0.17395219    -0.81200
C340        C  0.01187317  0.19923827  0.16154472     0.99500
C341        C  0.02045217  0.16996243  0.04894724     1.07000
O342        O  0.00891915  0.13157695  0.12901632    -1.10200
O343        O  0.97419674  0.08720617  0.09022174    -0.72600
O344        O  0.44703730  0.12944115  0.09823332    -0.76100
O345        O  0.03221330  0.18122403  0.17260955    -0.76800
C346        C  0.45024327  0.10338155  0.08542272     0.98400
O347        O  0.46426923  0.15831851  0.17536978    -0.74800
O348        O  0.03440049  0.07492483  0.11024873    -0.80000
C349        C  0.05060817  0.09941121  0.20646640     1.01100
C350        C  0.05697380  0.08613567  0.09309564     1.07000
O351        O  0.06130512  0.12165185  0.18655752    -0.75600
C352        C  0.46624279  0.13351366  0.19397538     1.05300
C353        C  0.03153451  0.17954524  0.97012504    -0.10900
C354        C  0.02769970  0.17762722  0.00691294    -0.12500
C355        C  0.99958323  0.22261684  0.18688810    -0.10900
C356        C  0.48645801  0.24592019  0.19630730    -0.12500
C357        C  0.51028658  0.25640790  0.83440329    -0.10900
C358        C  0.02557533  0.23528410  0.82698579    -0.12500
C359        C  0.46688541  0.28772417  0.00526549    -0.10900
C360        C  0.46328781  0.28598721  0.04188068    -0.12500
C361        C  0.51526914  0.11652370  0.69910299    -0.10900
C362        C  0.50191282  0.12438126  0.72885394    -0.12500
C363        C  0.49344049  0.12277272  0.26190674    -0.10900
C364        C  0.47941494  0.13209224  0.23339584    -0.12500
C365        C  0.46774906  0.18015276  0.46941259    -0.10900
C366        C  0.47062460  0.17741532  0.50614488    -0.12500
C367        C  0.49982262  0.33721011  0.77807625    -0.10900
C368        C  0.51255153  0.34387888  0.80894151    -0.12500
C369        C  0.02672738  0.22914549  0.68510399    -0.10900
C370        C  0.51370270  0.20585071  0.67686092    -0.12500
C371        C  0.48250228  0.33676308  0.27393779    -0.10900
C372        C  0.49743442  0.34440463  0.24549261    -0.12500
C373        C  0.48497556  0.22069532  0.30988930    -0.10900
C374        C  0.99820567  0.24295738  0.31949051    -0.12500
C375        C  0.02875822  0.28383271  0.53755104    -0.10900
C376        C  0.02514877  0.28567669  0.50073735    -0.12500
C377        C  0.08480838  0.39496185  0.24736480    -0.10900
C378        C  0.07112942  0.38001571  0.27303712    -0.12500
C379        C  0.07183280  0.39211611  0.08147683    -0.10900
C380        C  0.04805612  0.38062304  0.08030300    -0.12500
C381        C  0.08802681  0.04201161  0.07195285    -0.10900
C382        C  0.07551415  0.06546187  0.07266782    -0.12500
C383        C  0.12147658  0.38266121  0.77380227    -0.10900
C384        C  0.10800405  0.36797064  0.74798269    -0.12500
C385        C  0.09080836  0.39862748  0.94645464    -0.10900
C386        C  0.06606666  0.39251249  0.95684594    -0.12500
C387        C  0.19223096  0.45153325  0.00309341    -0.10900
C388        C  0.18897022  0.45204204  0.03979906    -0.12500
C389        C  0.09385408  0.06457775  0.91118029    -0.10900
C390        C  0.10765046  0.04186201  0.91051611    -0.12500
C391        C  0.39262852  0.08585989  0.26476726    -0.10900
C392        C  0.37734880  0.07261685  0.23941469    -0.12500
C393        C  0.42458096  0.08839039  0.07103640    -0.10900
C394        C  0.40220316  0.07431637  0.07406809    -0.12500
C395        C  0.22330667  0.48221736  0.19175938    -0.10900
C396        C  0.24496386  0.49690314  0.18244554    -0.12500
C397        C  0.38442013  0.42195629  0.07981352    -0.10900
C398        C  0.39879839  0.39982952  0.08358410    -0.12500
C399        C  0.42078968  0.07795315  0.72702438    -0.10900
C400        C  0.40670084  0.06614237  0.75528575    -0.12500
C401        C  0.42121005  0.08302017  0.90939069    -0.10900
C402        C  0.44379414  0.09660388  0.90478319    -0.12500
C403        C  0.27166266  0.47654978  0.81507525    -0.10900
C404        C  0.25059888  0.46136645  0.82543943    -0.12500
C405        C  0.29964029  0.01866175  0.00547719    -0.10900
C406        C  0.30192603  0.01905455  0.96837977    -0.12500
C407        C  0.40156199  0.42932065  0.94977166    -0.10900
C408        C  0.41218117  0.40491018  0.95124868    -0.12500
C409        C  0.11271741  0.07809206  0.72874672    -0.10900
C410        C  0.10133394  0.09434049  0.75461944    -0.12500
C411        C  0.08696227  0.06197811  0.55595807    -0.10900
C412        C  0.06261788  0.07044218  0.54711517    -0.12500
C413        C  0.16338836  0.47501838  0.76096627    -0.10900
C414        C  0.15478235  0.46423845  0.72987414    -0.12500
C415        C  0.09711773  0.42047190  0.57532017    -0.10900
C416        C  0.08781513  0.39599033  0.58117462    -0.12500
C417        C  0.06782442  0.08486201  0.24066964    -0.10900
C418        C  0.08115831  0.07026035  0.26758673    -0.12500
C419        C  0.04575498  0.08227838  0.43191219    -0.10900
C420        C  0.06931172  0.07027222  0.43361413    -0.12500
C421        C  0.12356527  0.49280430  0.23720328    -0.10900
C422        C  0.12438311  0.47571072  0.26544241    -0.12500
C423        C  0.19244659  0.01185672  0.47190812    -0.10900
C424        C  0.19615091  0.01199884  0.50867024    -0.12500
C425        C  0.07937994  0.39646206  0.43716974    -0.10900
C426        C  0.09259515  0.41953449  0.43647610    -0.12500
C427        C  0.41892006  0.38698751  0.78571648    -0.10900
C428        C  0.40494229  0.39908082  0.75763688    -0.12500
C429        C  0.42205467  0.38559227  0.60171161    -0.10900
C430        C  0.44441790  0.37143117  0.60487933    -0.12500
C431        C  0.37138388  0.48590370  0.74607077    -0.10900
C432        C  0.37411804  0.47033946  0.77582131    -0.12500
C433        C  0.26429910  0.47644860  0.69195897    -0.10900
C434        C  0.24148480  0.48930964  0.68234488    -0.12500
C435        C  0.39541567  0.03855514  0.56501297    -0.10900
C436        C  0.40842200  0.06165342  0.56244533    -0.12500
C437        C  0.38259623  0.39838201  0.27475764    -0.10900
C438        C  0.39763607  0.38457775  0.24958210    -0.12500
C439        C  0.40548666  0.39514452  0.43911132    -0.10900
C440        C  0.42762442  0.38048864  0.43991642    -0.12500
C441        C  0.33550348  0.47977641  0.23925418    -0.10900
C442        C  0.33654650  0.49280465  0.27100972    -0.12500
C443        C  0.24718051  0.47287278  0.32774708    -0.10900
C444        C  0.22531240  0.48687324  0.31724230    -0.12500
C445        C  0.30174514  0.45096907  0.50691724    -0.10900
C446        C  0.30342323  0.44990452  0.54407771    -0.12500
C447        C  0.38580355  0.04852228  0.43761968    -0.10900
C448        C  0.39984408  0.07076679  0.43369467    -0.12500
Fe449      Fe  0.31271831  0.99764013  0.39520072     1.65800
Fe450      Fe  0.37963602  0.97278931  0.36495098     1.73200
Fe451      Fe  0.32304210  0.92531515  0.37952618     1.54400
O452        O  0.30094743  0.93477831  0.43629776    -0.79300
O453        O  0.38077674  0.94492863  0.31345166    -0.77700
O454        O  0.31218738  0.98172937  0.45365722    -0.81900
O455        O  0.27493007  0.97455763  0.38504574    -0.76700
O456        O  0.35754234  0.90891173  0.41551109    -0.78500
O457        O  0.36298671  0.00772772  0.33044852    -0.81200
C458        C  0.27059498  0.96210657  0.35154095     0.99500
C459        C  0.30406729  0.95552810  0.46307459     1.07000
O460        O  0.33933776  0.96462903  0.38063601    -1.10200
O461        O  0.38513056  0.99977956  0.41548071    -0.72600
O462        O  0.34491687  0.02724709  0.40946463    -0.76100
O463        O  0.28796235  0.94125590  0.34079745    -0.76800
C464        C  0.37088312  0.02338223  0.42206258     0.98400
O465        O  0.31405582  0.01051092  0.33480461    -0.74800
O466        O  0.39584871  0.93875080  0.39991554    -0.80000
C467        C  0.36914148  0.91981630  0.30582434     1.01100
C468        C  0.38470181  0.91636486  0.41788052     1.07000
O469        O  0.34678819  0.91039903  0.32641030    -0.75600
C470        C  0.33745215  0.00659577  0.31407004     1.05300
Fe471      Fe  0.33746756  0.99614951  0.64447993     1.65800
Fe472      Fe  0.40473016  0.96298678  0.64921209     1.73200
Fe473      Fe  0.34207319  0.92258422  0.65794332     1.54400
O474        O  0.30191475  0.94103114  0.68198862    -0.79300
O475        O  0.40416831  0.93402938  0.60175502    -0.77700
O476        O  0.31525433  0.98630042  0.69639695    -0.81900
O477        O  0.30766856  0.97476105  0.60468821    -0.76700
O478        O  0.36319479  0.91602188  0.71510667    -0.78500
O479        O  0.40516778  0.99809474  0.60726439    -0.81200
C480        C  0.31060073  0.95034639  0.58528201     0.99500
C481        C  0.29560763  0.96708192  0.69442183     1.07000
O482        O  0.36153888  0.96075919  0.65062784    -1.10200
O483        O  0.40692106  0.99298781  0.69560137    -0.72600
O484        O  0.36682961  0.01802249  0.68177182    -0.76100
O485        O  0.32419154  0.92796226  0.60021144    -0.76800
C486        C  0.38256565  0.00338778  0.70710297     0.98400
O487        O  0.35844827  0.00988138  0.59255259    -0.74800
O488        O  0.40885178  0.92850463  0.69385344    -0.80000
C489        C  0.39837092  0.90718948  0.60875455     1.01100
C490        C  0.39154075  0.91541513  0.71936943     1.07000
O491        O  0.37732266  0.89921542  0.63214838    -0.75600
C492        C  0.38583838  0.01320589  0.58774997     1.05300
Fe493      Fe  0.14997549  0.96553915  0.37268105     1.65800
Fe494      Fe  0.08528343  0.49812420  0.35721895     1.73200
Fe495      Fe  0.14761155  0.53984215  0.35646841     1.54400
O496        O  0.16649291  0.53105382  0.41294561    -0.79300
O497        O  0.08076973  0.53582395  0.31687249    -0.77700
O498        O  0.18258645  0.48444109  0.40491291    -0.81900
O499        O  0.17575571  0.47812595  0.31309939    -0.76700
O500        O  0.11248195  0.56032443  0.38707432    -0.78500
O501        O  0.08279163  0.97147397  0.31462867    -0.81200
C502        C  0.19502179  0.49760289  0.31712216     0.99500
C503        C  0.18072104  0.50835083  0.42549066     1.07000
O504        O  0.12856727  0.50105278  0.35885804    -1.10200
O505        O  0.08153038  0.96090684  0.40206334    -0.72600
O506        O  0.12730380  0.95188178  0.42368235    -0.76100
O507        O  0.18792814  0.52342419  0.32990539    -0.76800
C508        C  0.09997864  0.94651941  0.42401068     0.98400
O509        O  0.12065309  0.94477895  0.33418801    -0.74800
O510        O  0.08394937  0.52318147  0.40845052    -0.80000
C511        C  0.09807551  0.55181978  0.29455895     1.01100
C512        C  0.09177011  0.54991028  0.40933489     1.07000
O513        O  0.12632393  0.55125294  0.30016086    -0.75600
C514        C  0.10727259  0.95961667  0.30656342     1.05300
Fe515      Fe  0.16727501  0.96555810  0.61659207     1.65800
Fe516      Fe  0.10382401  0.50351406  0.64185273     1.73200
Fe517      Fe  0.16652954  0.54156922  0.62300846     1.54400
O518        O  0.20501327  0.52323150  0.65371082    -0.79300
O519        O  0.09453667  0.52474268  0.58875288    -0.77700
O520        O  0.19955536  0.47390641  0.65120057    -0.81900
O521        O  0.18772194  0.48222265  0.56304666    -0.76700
O522        O  0.15025145  0.55747151  0.67975929    -0.78500
O523        O  0.09784295  0.95938799  0.61861625    -0.81200
C524        C  0.18959609  0.50766785  0.54660588     0.99500
C525        C  0.21365159  0.49650964  0.66209212     1.07000
O526        O  0.14574347  0.50434400  0.62652112    -1.10200
O527        O  0.11576208  0.48274750  0.69434269    -0.72600
O528        O  0.14650908  0.94469473  0.66546168    -0.76100
O529        O  0.18299582  0.53136612  0.56526515    -0.76800
C530        C  0.13933479  0.95820232  0.69798372     0.98400
O531        O  0.13503794  0.95465386  0.57589153    -0.74800
O532        O  0.10340501  0.54400411  0.67345122    -0.80000
C533        C  0.10549225  0.54914326  0.57662530     1.01100
C534        C  0.12313409  0.55990326  0.69018193     1.07000
O535        O  0.12971390  0.56019980  0.59072464    -0.75600
C536        C  0.11032882  0.94654865  0.58894370     1.05300
Fe537      Fe  0.34008141  0.97018349  0.87010587     1.65800
Fe538      Fe  0.40984516  0.50260030  0.86081519     1.73200
Fe539      Fe  0.34478627  0.53950835  0.84842526     1.54400
O540        O  0.30587826  0.51677092  0.82565322    -0.79300
O541        O  0.40797239  0.53401727  0.90515631    -0.77700
O542        O  0.32160183  0.47106243  0.81846552    -0.81900
O543        O  0.31227679  0.48914819  0.90684707    -0.76700
O544        O  0.36602034  0.54517183  0.79090730    -0.78500
O545        O  0.40742471  0.96981102  0.90651426    -0.81200
C546        C  0.31422086  0.51448177  0.92391025     0.99500
C547        C  0.30107295  0.48947604  0.81686052     1.07000
O548        O  0.36636935  0.50299975  0.85952525    -1.10200
O549        O  0.41349979  0.46996016  0.81790269    -0.72600
O550        O  0.37028290  0.94744377  0.83542648    -0.76100
O551        O  0.32698089  0.53642053  0.90677483    -0.76800
C552        C  0.38501410  0.96131207  0.80837477     0.98400
O553        O  0.36097531  0.95880548  0.92330800    -0.74800
O554        O  0.41234165  0.53527375  0.81255897    -0.80000
C555        C  0.40034866  0.56016237  0.89616092     1.01100
C556        C  0.39434989  0.54715518  0.78641834     1.07000
O557        O  0.37867425  0.56594396  0.87236243    -0.75600
C558        C  0.38843383  0.95475548  0.92660379     1.05300
Fe559      Fe  0.31011289  0.97471263  0.12100784     1.65800
Fe560      Fe  0.37752307  0.49975234  0.14571504     1.73200
Fe561      Fe  0.32051369  0.54665182  0.12964209     1.54400
O562        O  0.30018476  0.53535915  0.07180726    -0.79300
O563        O  0.37824441  0.52806766  0.19594685    -0.77700
O564        O  0.31130349  0.48750970  0.05827897    -0.81900
O565        O  0.27313382  0.49768421  0.12402762    -0.76700
O566        O  0.35523260  0.56356603  0.09484876    -0.78500
O567        O  0.36015276  0.96666444  0.18681134    -0.81200
C568        C  0.26838652  0.50982723  0.15748680     0.99500
C569        C  0.30404088  0.51360722  0.04662510     1.07000
O570        O  0.33727179  0.50757640  0.13011046    -1.10200
O571        O  0.38205174  0.97151906  0.10148682    -0.72600
O572        O  0.34240769  0.94413437  0.11170185    -0.76100
O573        O  0.28523852  0.53100927  0.16812670    -0.76800
C574        C  0.36796773  0.94753610  0.09764271     0.98400
O575        O  0.31099253  0.96581696  0.18306147    -0.74800
O576        O  0.39360223  0.53354546  0.11007033    -0.80000
C577        C  0.36599858  0.55283542  0.20353801     1.01100
C578        C  0.38246420  0.55628702  0.09273599     1.07000
O579        O  0.34331508  0.56202950  0.18320275    -0.75600
C580        C  0.33484923  0.96838937  0.20355361     1.05300
Fe581      Fe  0.18316513  0.98879481  0.88322097     1.65800
Fe582      Fe  0.11865736  0.95971799  0.85224810     1.73200
Fe583      Fe  0.17501912  0.91549301  0.88140949     1.54400
O584        O  0.21140317  0.92891223  0.84300283    -0.79300
O585        O  0.10138249  0.92976709  0.89274355    -0.77700
O586        O  0.22084801  0.96459750  0.88455722    -0.81900
O587        O  0.17995638  0.97981759  0.94421504    -0.76700
O588        O  0.15458059  0.89482774  0.82911778    -0.78500
O589        O  0.11026819  0.99165583  0.89564930    -0.81200
C590        C  0.18827684  0.95503646  0.95959554     0.99500
C591        C  0.22706145  0.95133399  0.85249467     1.07000
O592        O  0.15787053  0.95405425  0.87348672    -1.10200
O593        O  0.13722185  0.99061717  0.81314829    -0.72600
O594        O  0.18586456  0.99318953  0.82048920    -0.76100
O595        O  0.19348137  0.93174469  0.93780436    -0.76800
C596        C  0.16321604  0.98689804  0.79928577     0.98400
O597        O  0.14965543  0.01948513  0.88562329    -0.74800
O598        O  0.12063589  0.92715177  0.80717207    -0.80000
C599        C  0.11215626  0.91066431  0.91746654     1.01100
C600        C  0.13338035  0.90208699  0.80458620     1.07000
O601        O  0.13922550  0.90244663  0.91774643    -0.75600
C602        C  0.12347906  0.01620545  0.89787001     1.05300
Fe603      Fe  0.15014735  0.99864925  0.14423251     1.65800
Fe604      Fe  0.08417810  0.96386537  0.15181454     1.73200
Fe605      Fe  0.14793707  0.92432591  0.15296898     1.54400
O606        O  0.16503984  0.93255996  0.09577794    -0.79300
O607        O  0.08193522  0.92679238  0.19280785    -0.77700
O608        O  0.17974120  0.97972050  0.10206499    -0.81900
O609        O  0.17397381  0.98768513  0.19446139    -0.76700
O610        O  0.11290853  0.90184790  0.12402103    -0.78500
O611        O  0.08340016  0.99142825  0.20110837    -0.81200
C612        C  0.19397416  0.96885812  0.19131652     0.99500
C613        C  0.17789297  0.95555194  0.08196980     1.07000
O614        O  0.12739816  0.96236716  0.14987754    -1.10200
O615        O  0.08131714  0.00075851  0.11334151    -0.72600
O616        O  0.12692292  0.01303988  0.09415770    -0.76100
O617        O  0.18807371  0.94283787  0.17808317    -0.76800
C618        C  0.09927965  0.01630134  0.09235085     0.98400
O619        O  0.12118444  0.01869129  0.18378759    -0.74800
O620        O  0.08353744  0.93808902  0.10137951    -0.80000
C621        C  0.10014226  0.91210880  0.21550357     1.01100
C622        C  0.09190616  0.91148947  0.10129503     1.07000
O623        O  0.12827460  0.91371484  0.20997412    -0.75600
C624        C  0.10767467  0.00316030  0.21034954     1.05300
Fe625      Fe  0.97553971  0.80873476  0.38953601     1.65800
Fe626      Fe  0.00331785  0.87567142  0.36569608     1.73200
Fe627      Fe  0.04850417  0.81667472  0.37831412     1.54400
O628        O  0.03671285  0.79229469  0.43240217    -0.79300
O629        O  0.03096718  0.87665453  0.31445048    -0.77700
O630        O  0.98971419  0.80422460  0.44889741    -0.81900
O631        O  0.99726450  0.77040857  0.37769708    -0.76700
O632        O  0.06523413  0.84908808  0.41744361    -0.78500
O633        O  0.96784409  0.86230605  0.33054784    -0.81200
C634        C  0.01109005  0.76697383  0.34500486     0.99500
C635        C  0.01540111  0.79450369  0.45844979     1.07000
O636        O  0.00982463  0.83444051  0.37896734    -1.10200
O637        O  0.97645897  0.88032094  0.41637404    -0.72600
O638        O  0.44682635  0.84223683  0.40477315    -0.76100
O639        O  0.03282190  0.78392802  0.33675764    -0.76800
C640        C  0.45179526  0.86712895  0.42053342     0.98400
O641        O  0.46523446  0.81329811  0.32783541    -0.74800
O642        O  0.03774884  0.88915574  0.40133429    -0.80000
C643        C  0.05564312  0.86432610  0.30665005     1.01100
C644        C  0.05894564  0.87661023  0.42027010     1.07000
O645        O  0.06483399  0.84172007  0.32721290    -0.75600
C646        C  0.46866105  0.83828561  0.31026338     1.05300
Fe647      Fe  0.99574380  0.80503572  0.66078628     1.65800
Fe648      Fe  0.02780875  0.87200401  0.66748912     1.73200
Fe649      Fe  0.06953905  0.81268403  0.64799708     1.54400
O650        O  0.05764165  0.76853151  0.66728431    -0.79300
O651        O  0.04583432  0.87987988  0.61179559    -0.77700
O652        O  0.01682101  0.77753172  0.69991609    -0.81900
O653        O  0.00872581  0.78405611  0.60607537    -0.76700
O654        O  0.08609998  0.82758456  0.70568879    -0.78500
O655        O  0.98668519  0.87627723  0.63952243    -0.81200
C656        C  0.02965238  0.78947442  0.58063385     0.99500
C657        C  0.03437987  0.75929920  0.68542254     1.07000
O658        O  0.03070651  0.82995941  0.65855305    -1.10200
O659        O  0.01011046  0.86412941  0.72266173    -0.72600
O660        O  0.48025714  0.82528213  0.71416934    -0.76100
O661        O  0.05414052  0.80117499  0.59091393    -0.76800
C662        C  0.99502573  0.84285935  0.73668391     0.98400
O663        O  0.47058815  0.83227258  0.62296768    -0.74800
O664        O  0.06910830  0.87402390  0.69863453    -0.80000
C665        C  0.07229700  0.87351145  0.60397645     1.01100
C666        C  0.08648306  0.85519629  0.71595031     1.07000
O667        O  0.08578586  0.85191975  0.62126092    -0.75600
C668        C  0.46850249  0.86003256  0.62212484     1.05300
Fe669      Fe  0.50739884  0.64516661  0.35968394     1.65800
Fe670      Fe  0.47186123  0.57965652  0.34814710     1.71600
Fe671      Fe  0.43338585  0.64417519  0.35212614     1.54400
O672        O  0.44324091  0.66052050  0.40947603    -0.79300
O673        O  0.43359017  0.57829076  0.31017651    -0.77700
O674        O  0.49009102  0.67502757  0.40198659    -0.81900
O675        O  0.49842349  0.67192913  0.31140511    -0.76700
O676        O  0.41189428  0.60932772  0.38250404    -0.78500
O677        O  0.49742948  0.58078911  0.29650954    -0.81200
C678        C  0.47806767  0.69070327  0.31294051     0.99500
C679        C  0.46658802  0.67252604  0.42317058     1.07000
O680        O  0.47075694  0.62317618  0.35251445    -1.10200
O681        O  0.50975168  0.57559521  0.38433546    -0.72600
O682        O  0.01875943  0.62024396  0.40943102    -0.76100
O683        O  0.45205981  0.68376833  0.32554739    -0.76800
C684        C  0.02326103  0.59278712  0.40840231     0.98400
O685        O  0.52599018  0.61561936  0.31951849    -0.74800
O686        O  0.44749432  0.57723881  0.40002511    -0.80000
C687        C  0.41800082  0.59701417  0.28962773     1.01100
C688        C  0.42166473  0.58742653  0.40354501     1.07000
O689        O  0.42028592  0.62510473  0.29562534    -0.75600
C690        C  0.51019317  0.60518384  0.29088376     1.05300
Fe691      Fe  0.51932721  0.63442066  0.59683871     1.65800
Fe692      Fe  0.48216042  0.57035124  0.61595189     1.73200
Fe693      Fe  0.44698787  0.63706043  0.62145592     1.54400
O694        O  0.47048417  0.67335292  0.64971676    -0.79300
O695        O  0.45367896  0.57161405  0.56789574    -0.77700
O696        O  0.51867622  0.66357132  0.64310013    -0.81900
O697        O  0.50001275  0.66478809  0.55689091    -0.76700
O698        O  0.43873387  0.61584662  0.67888316    -0.78500
O699        O  0.51786185  0.56425260  0.57642198    -0.81200
C700        C  0.47356117  0.66707173  0.54401570     0.99500
C701        C  0.49798302  0.67962662  0.65576767     1.07000
O702        O  0.48271699  0.61444087  0.61232053    -1.10200
O703        O  0.51230865  0.56896696  0.66273069    -0.72600
O704        O  0.04062115  0.60376464  0.63578524    -0.76100
O705        O  0.45140926  0.65710165  0.56385218    -0.76800
C706        C  0.52424593  0.59391246  0.66633840     0.98400
O707        O  0.02383839  0.60757083  0.54678597    -0.74800
O708        O  0.44735537  0.56916800  0.65989786    -0.80000
C709        C  0.42764388  0.58122495  0.57170057     1.01100
C710        C  0.43607666  0.58774456  0.68492794     1.07000
O711        O  0.42111531  0.60386681  0.59335890    -0.75600
C712        C  0.03245764  0.58144922  0.55200393     1.05300
Fe713      Fe  0.52167744  0.83040610  0.90941290     1.65800
Fe714      Fe  0.48736132  0.89439841  0.87985507     1.73200
Fe715      Fe  0.44992067  0.82844405  0.88053277     1.54400
O716        O  0.47291458  0.79210449  0.85145634    -0.79300
O717        O  0.45858983  0.89808439  0.92698017    -0.77700
O718        O  0.52050949  0.79716137  0.86885155    -0.81900
O719        O  0.50101568  0.80485826  0.95376319    -0.76700
O720        O  0.44093800  0.84849664  0.82308319    -0.78500
O721        O  0.52353957  0.90184575  0.91780868    -0.81200
C722        C  0.47394391  0.80066037  0.96214656     0.99500
C723        C  0.50022994  0.78371157  0.85044280     1.07000
O724        O  0.48600311  0.85054249  0.88955641    -1.10200
O725        O  0.51752842  0.89050629  0.83351108    -0.72600
O726        O  0.04320383  0.85622297  0.86568143    -0.76100
O727        O  0.45302351  0.80798249  0.93796044    -0.76800
C728        C  0.52819864  0.86474066  0.83375660     0.98400
O729        O  0.02635285  0.86047409  0.95466112    -0.74800
O730        O  0.45211209  0.89527012  0.83742608    -0.80000
C731        C  0.43306311  0.88656611  0.92847529     1.01100
C732        C  0.43865131  0.87628041  0.81560832     1.07000
O733        O  0.42576582  0.86272805  0.90960817    -0.75600
C734        C  0.03645030  0.88542419  0.94554954     1.05300
Fe735      Fe  0.50403151  0.82221510  0.14380110     1.65800
Fe736      Fe  0.46900936  0.88806194  0.15288238     1.73200
Fe737      Fe  0.43049063  0.82370260  0.15510397     1.54400
O738        O  0.43845114  0.80707975  0.09694843    -0.79300
O739        O  0.43180643  0.89072230  0.19297283    -0.77700
O740        O  0.48504427  0.79149884  0.10412160    -0.81900
O741        O  0.49630764  0.79711927  0.19406695    -0.76700
O742        O  0.40769384  0.85865717  0.12619906    -0.78500
O743        O  0.49609614  0.88899319  0.20302883    -0.81200
C744        C  0.47712121  0.77729460  0.19191710     0.99500
C745        C  0.46164835  0.79491979  0.08276498     1.07000
O746        O  0.46780042  0.84451713  0.15180843    -1.10200
O747        O  0.50653382  0.89081096  0.11581951    -0.72600
O748        O  0.01436032  0.84516487  0.09162709    -0.76100
O749        O  0.45055097  0.78363823  0.18042052    -0.76800
C750        C  0.02079029  0.87216311  0.09291101     0.98400
O751        O  0.52384437  0.85282614  0.18155258    -0.74800
O752        O  0.44333209  0.88792155  0.10194061    -0.80000
C753        C  0.41762616  0.87279735  0.21659241     1.01100
C754        C  0.41674375  0.87977148  0.10317765     1.07000
O755        O  0.41977853  0.84436156  0.21216841    -0.75600
C756        C  0.50892283  0.86473619  0.21001519     1.05300
Fe757      Fe  0.99852184  0.66030610  0.84074708     1.65800
Fe758      Fe  0.02891953  0.59235838  0.83808703     1.73200
Fe759      Fe  0.07209328  0.65138772  0.85178054     1.54400
O760        O  0.06031914  0.69620715  0.83495502    -0.79300
O761        O  0.05019598  0.58569292  0.89232618    -0.77700
O762        O  0.02056448  0.68658126  0.80136455    -0.81900
O763        O  0.01276084  0.67996127  0.89665123    -0.76700
O764        O  0.08489865  0.63625938  0.79272702    -0.78500
O765        O  0.98926905  0.58958953  0.86967972    -0.81200
C766        C  0.03452687  0.67446048  0.92126678     0.99500
C767        C  0.03706326  0.70524079  0.81668031     1.07000
O768        O  0.03265728  0.63452627  0.84401334    -1.10200
O769        O  0.00817340  0.59786923  0.78402102    -0.72600
O770        O  0.48374034  0.64222905  0.78686509    -0.76100
O771        O  0.05881578  0.66271089  0.90984385    -0.76800
C772        C  0.99522607  0.61961103  0.76720419     0.98400
O773        O  0.47100592  0.63581363  0.87722100    -0.74800
O774        O  0.06823972  0.58987448  0.80311603    -0.80000
C775        C  0.07766425  0.58977372  0.89362959     1.01100
C776        C  0.08416127  0.60850548  0.78314086     1.07000
O777        O  0.08979763  0.61162893  0.87539673    -0.75600
C778        C  0.46945556  0.60826226  0.88292512     1.05300
Fe779      Fe  0.98000620  0.66258762  0.11252974     1.65800
Fe780      Fe  0.00191854  0.59399160  0.14031590     1.73200
Fe781      Fe  0.05166100  0.64898718  0.12857324     1.54400
O782        O  0.04297563  0.67237516  0.07170725    -0.79300
O783        O  0.02884563  0.59092957  0.19291340    -0.77700
O784        O  0.99541563  0.66403692  0.05365996    -0.81900
O785        O  0.00502909  0.69910917  0.12277366    -0.76700
O786        O  0.06706531  0.61434633  0.09218673    -0.78500
O787        O  0.96696950  0.61131207  0.17310129    -0.81200
C788        C  0.01659815  0.70216958  0.15717681     0.99500
C789        C  0.02193306  0.67129970  0.04468546     1.07000
O790        O  0.01190599  0.63426105  0.12601616    -1.10200
O791        O  0.97558237  0.59102701  0.08869746    -0.72600
O792        O  0.44819364  0.63154916  0.09887438    -0.76100
O793        O  0.03684062  0.68396640  0.16804556    -0.76800
C794        C  0.45098207  0.60557457  0.08551765     0.98400
O795        O  0.46830754  0.66048397  0.17473341    -0.74800
O796        O  0.03569772  0.57700619  0.10653792    -0.80000
C797        C  0.05409543  0.60161603  0.20209866     1.01100
C798        C  0.05849479  0.58748345  0.08909848     1.07000
O799        O  0.06489081  0.62373670  0.18196378    -0.75600
C800        C  0.46957929  0.63558842  0.19330843     1.05300
C801        C  0.03102999  0.67953319  0.96485766    -0.10900
C802        C  0.02807224  0.67808802  0.00191808    -0.12500
C803        C  0.00391511  0.72534628  0.18274798    -0.10900
C804        C  0.48876365  0.74707185  0.19312244    -0.12500
C805        C  0.51059636  0.75731487  0.82964964    -0.10900
C806        C  0.02491730  0.73499579  0.82099506    -0.12500
C807        C  0.46672461  0.79006563  0.00287431    -0.10900
C808        C  0.46283029  0.78818353  0.03955709    -0.12500
C809        C  0.50954102  0.61291309  0.69436830    -0.10900
C810        C  0.49670281  0.62093992  0.72441496    -0.12500
C811        C  0.49679768  0.62396381  0.26088449    -0.10900
C812        C  0.48241721  0.63369458  0.23294021    -0.12500
C813        C  0.46735707  0.68025122  0.46596683    -0.10900
C814        C  0.46911778  0.67840685  0.50292691    -0.12500
C815        C  0.49774596  0.83830176  0.77918309    -0.10900
C816        C  0.51216756  0.84468710  0.80867164    -0.12500
C817        C  0.02363840  0.72902771  0.68257292    -0.10900
C818        C  0.50804388  0.70692055  0.67458117    -0.12500
C819        C  0.48149473  0.83959591  0.27064892    -0.10900
C820        C  0.49595435  0.84752968  0.24186565    -0.12500
C821        C  0.48775408  0.72115939  0.30922564    -0.10900
C822        C  0.00041190  0.74348243  0.31889862    -0.12500
C823        C  0.02472205  0.78449697  0.53750324    -0.10900
C824        C  0.02073288  0.78647470  0.50081867    -0.12500
C825        C  0.08756794  0.89271288  0.24805308    -0.10900
C826        C  0.07416909  0.87798181  0.27411465    -0.12500
C827        C  0.07271384  0.89172940  0.08048764    -0.10900
C828        C  0.04862905  0.88103811  0.07673785    -0.12500
C829        C  0.08785492  0.54217189  0.06775818    -0.10900
C830        C  0.07632504  0.56614111  0.06868296    -0.12500
C831        C  0.12152127  0.88114349  0.77338354    -0.10900
C832        C  0.10714324  0.86690841  0.74772932    -0.12500
C833        C  0.09130310  0.89804607  0.94531660    -0.10900
C834        C  0.06651245  0.89183496  0.95529256    -0.12500
C835        C  0.19134067  0.95358169  0.00357422    -0.10900
C836        C  0.18859632  0.95453610  0.04043899    -0.12500
C837        C  0.09542524  0.56599554  0.90893680    -0.10900
C838        C  0.10872177  0.54294791  0.91044204    -0.12500
C839        C  0.39663950  0.58495370  0.25924103    -0.10900
C840        C  0.38046070  0.57163463  0.23499891    -0.12500
C841        C  0.42508576  0.59065602  0.07169496    -0.10900
C842        C  0.40306034  0.57592248  0.07378807    -0.12500
C843        C  0.22376526  0.98072014  0.19356857    -0.10900
C844        C  0.24475994  0.99640619  0.18459645    -0.12500
C845        C  0.38243962  0.92193647  0.08275758    -0.10900
C846        C  0.39617769  0.89932538  0.08450034    -0.12500
C847        C  0.41977723  0.57572520  0.72120578    -0.10900
C848        C  0.40724358  0.56336751  0.75052461    -0.12500
C849        C  0.42091911  0.58287946  0.90571002    -0.10900
C850        C  0.44330899  0.59674360  0.90138530    -0.12500
C851        C  0.26905217  0.98245398  0.81671350    -0.10900
C852        C  0.24922943  0.96555703  0.82674348    -0.12500
C853        C  0.30102649  0.51818500  0.00273096    -0.10900
C854        C  0.30391122  0.51774686  0.96572268    -0.12500
C855        C  0.39828116  0.92832952  0.94688570    -0.10900
C856        C  0.41109153  0.90496742  0.94656294    -0.12500
C857        C  0.11351183  0.58105511  0.72215668    -0.10900
C858        C  0.10184052  0.59616136  0.74903166    -0.12500
C859        C  0.08658930  0.56561472  0.54963915    -0.10900
C860        C  0.06210496  0.57404331  0.54086211    -0.12500
C861        C  0.16627492  0.97043990  0.76277683    -0.10900
C862        C  0.15830658  0.95835952  0.73232131    -0.12500
C863        C  0.09873784  0.91899139  0.57577720    -0.10900
C864        C  0.08814966  0.89495807  0.58082955    -0.12500
C865        C  0.07142128  0.58662304  0.23569165    -0.10900
C866        C  0.08449921  0.57141310  0.26212908    -0.12500
C867        C  0.04857906  0.58161866  0.42922467    -0.10900
C868        C  0.07201667  0.56934261  0.42939725    -0.12500
C869        C  0.12248942  0.98930456  0.24389203    -0.10900
C870        C  0.12236924  0.97298352  0.27305992    -0.12500
C871        C  0.19288030  0.50903597  0.46638558    -0.10900
C872        C  0.19579052  0.50919347  0.50331147    -0.12500
C873        C  0.07776870  0.89631495  0.44216768    -0.10900
C874        C  0.08998110  0.91991802  0.44360955    -0.12500
C875        C  0.42001478  0.88738649  0.78151612    -0.10900
C876        C  0.40552709  0.89926676  0.75392366    -0.12500
C877        C  0.42042275  0.88619883  0.59824636    -0.10900
C878        C  0.44299838  0.87270313  0.60318352    -0.12500
C879        C  0.37044415  0.98941234  0.74260651    -0.10900
C880        C  0.37145164  0.97426436  0.77300737    -0.12500
C881        C  0.26543417  0.97784537  0.69677387    -0.10900
C882        C  0.24197955  0.98974264  0.68839761    -0.12500
C883        C  0.39320403  0.53785826  0.56556343    -0.10900
C884        C  0.40524213  0.56113003  0.55940378    -0.12500
C885        C  0.38341797  0.90080627  0.27379452    -0.10900
C886        C  0.39816945  0.88638812  0.24869818    -0.12500
C887        C  0.40534576  0.89715238  0.43748663    -0.10900
C888        C  0.42743014  0.88246538  0.43792727    -0.12500
C889        C  0.33338031  0.97992412  0.24371941    -0.10900
C890        C  0.33457614  0.99359410  0.27492365    -0.12500
C891        C  0.24586316  0.97345264  0.32735924    -0.10900
C892        C  0.22307027  0.98674091  0.31892749    -0.12500
C893        C  0.29910548  0.94959776  0.50608262    -0.10900
C894        C  0.30073611  0.94878328  0.54324090    -0.12500
C895        C  0.38724222  0.54811545  0.43191750    -0.10900
C896        C  0.40188076  0.56981990  0.42679488    -0.12500
Fe897      Fe  0.81340619  0.49569700  0.39429168     1.65800
Fe898      Fe  0.87999269  0.46966006  0.36654553     1.73200
Fe899      Fe  0.82285908  0.42308004  0.38208623     1.54400
O900        O  0.80190352  0.43432634  0.43909564    -0.79300
O901        O  0.88147622  0.44017472  0.31735260    -0.77700
O902        O  0.81333198  0.48186355  0.45372942    -0.81900
O903        O  0.77549871  0.47236404  0.38700677    -0.76700
O904        O  0.85739879  0.40640044  0.41780076    -0.78500
O905        O  0.86412406  0.50304148  0.32813348    -0.81200
C906        C  0.77087555  0.45992896  0.35365840     0.99500
C907        C  0.80537744  0.45585899  0.46466696     1.07000
O908        O  0.83965375  0.46216674  0.38175485    -1.10200
O909        O  0.88514365  0.49835125  0.41507297    -0.72600
O910        O  0.84561814  0.52604335  0.40525682    -0.76100
O911        O  0.78780161  0.43871552  0.34329092    -0.76800
C912        C  0.87134128  0.52248124  0.41883844     0.98400
O913        O  0.81485252  0.50552421  0.33299107    -0.74800
O914        O  0.89557214  0.43691949  0.40442514    -0.80000
C915        C  0.86861995  0.41588417  0.30898736     1.01100
C916        C  0.88435989  0.41424186  0.42158618     1.07000
O917        O  0.84558037  0.40732299  0.32877092    -0.75600
C918        C  0.83838536  0.50287119  0.31202758     1.05300
Fe919      Fe  0.83592549  0.49628013  0.65038305     1.65800
Fe920      Fe  0.90404371  0.46394217  0.65354916     1.73200
Fe921      Fe  0.84191850  0.42233966  0.66029011     1.54400
O922        O  0.80032755  0.43954739  0.68196899    -0.79300
O923        O  0.90540620  0.43404303  0.60721858    -0.77700
O924        O  0.81349443  0.48359896  0.70085824    -0.81900
O925        O  0.80804205  0.47513699  0.60765453    -0.76700
O926        O  0.86225122  0.41509216  0.71808875    -0.78500
O927        O  0.90387957  0.49778874  0.60947354    -0.81200
C928        C  0.81183380  0.45115783  0.58742507     0.99500
C929        C  0.79352672  0.46525761  0.69508240     1.07000
O930        O  0.86090255  0.46110644  0.65451556    -1.10200
O931        O  0.90527096  0.49540556  0.69811814    -0.72600
O932        O  0.86321341  0.51810324  0.69028929    -0.76100
O933        O  0.82548136  0.42863663  0.60195222    -0.76800
C934        C  0.88064276  0.50284997  0.71237405     0.98400
O935        O  0.85725063  0.51320783  0.60079444    -0.74800
O936        O  0.90793673  0.43021767  0.69979412    -0.80000
C937        C  0.89946090  0.40722314  0.61385757     1.01100
C938        C  0.89056585  0.41553547  0.72371198     1.07000
O939        O  0.87790269  0.39927081  0.63620206    -0.75600
C940        C  0.88436381  0.51415076  0.59226605     1.05300
Fe941      Fe  0.65312060  0.46505630  0.36357183     1.65800
Fe942      Fe  0.58307290  0.99859770  0.36366145     1.73200
Fe943      Fe  0.64563669  0.03996145  0.36130237     1.54400
O944        O  0.66519402  0.03255456  0.41788042    -0.79300
O945        O  0.57836158  0.03600609  0.32298819    -0.77700
O946        O  0.68030628  0.98542539  0.41282765    -0.81900
O947        O  0.67426476  0.97583593  0.32196357    -0.76700
O948        O  0.61063987  0.06087226  0.39191490    -0.78500
O949        O  0.58554206  0.47033342  0.30758751    -0.81200
C950        C  0.69278578  0.99633373  0.32253926     0.99500
C951        C  0.67916742  0.01007183  0.43169806     1.07000
O952        O  0.62644671  0.00143677  0.36528911    -1.10200
O953        O  0.58466907  0.46042509  0.39543223    -0.72600
O954        O  0.63089540  0.44888506  0.41343608    -0.76100
O955        O  0.68544775  0.02248549  0.33410208    -0.76800
C956        C  0.60332823  0.44509589  0.41584130     0.98400
O957        O  0.62452667  0.44449428  0.32409034    -0.74800
O958        O  0.58212791  0.02399218  0.41449147    -0.80000
C959        C  0.59555449  0.05140061  0.29979748     1.01100
C960        C  0.58983162  0.05077540  0.41437419     1.07000
O961        O  0.62385375  0.05055704  0.30489142    -0.75600
C962        C  0.61037658  0.45997575  0.29804518     1.05300
Fe963      Fe  0.66482699  0.46643317  0.61369134     1.65800
Fe964      Fe  0.60618987  0.99917202  0.65022350     1.73200
Fe965      Fe  0.66678802  0.04042429  0.63046822     1.54400
O966        O  0.70576322  0.02347110  0.66056653    -0.79300
O967        O  0.59488356  0.02138141  0.59863102    -0.77700
O968        O  0.70268712  0.97402841  0.65549443    -0.81900
O969        O  0.68951689  0.98327767  0.56770480    -0.76700
O970        O  0.65062068  0.05539439  0.68743189    -0.78500
O971        O  0.59519364  0.46176562  0.61321277    -0.81200
C972        C  0.69031369  0.00912167  0.55240325     0.99500
C973        C  0.71549538  0.99702989  0.66782604     1.07000
O974        O  0.64759484  0.00215361  0.63321485    -1.10200
O975        O  0.62014507  0.97719243  0.70083880    -0.72600
O976        O  0.64223523  0.44758651  0.66259532    -0.76100
O977        O  0.68326684  0.03208224  0.57232318    -0.76800
C978        C  0.63509567  0.46225541  0.69416904     0.98400
O979        O  0.63308512  0.45636810  0.57202829    -0.74800
O980        O  0.60463963  0.03891740  0.68396193    -0.80000
C981        C  0.60545617  0.04566853  0.58537879     1.01100
C982        C  0.62371832  0.05650620  0.69891089     1.07000
O983        O  0.62935021  0.05759842  0.59892255    -0.75600
C984        C  0.60838244  0.44813321  0.58479550     1.05300
Fe985      Fe  0.84355165  0.46697913  0.87149716     1.65800
Fe986      Fe  0.90623205  0.00439118  0.86333772     1.73200
Fe987      Fe  0.84260714  0.04355074  0.85178120     1.54400
O988        O  0.80261920  0.02337792  0.82817921    -0.79300
O989        O  0.90510362  0.03479477  0.90916438    -0.77700
O990        O  0.81921116  0.97927744  0.81493525    -0.81900
O991        O  0.80887040  0.99205958  0.90631405    -0.76700
O992        O  0.86432648  0.04952562  0.79462535    -0.78500
O993        O  0.91116442  0.46850832  0.90609765    -0.81200
C994        C  0.81137260  0.01675487  0.92515598     0.99500
C995        C  0.79805098  0.99668695  0.81676628     1.07000
O996        O  0.86304963  0.00593013  0.86144602    -1.10200
O997        O  0.90925550  0.97312571  0.81851835    -0.72600
O998        O  0.87484918  0.44392445  0.83899483    -0.76100
O999        O  0.82449458  0.03912214  0.90962279    -0.76800
C1000       C  0.88843324  0.45710360  0.81014803     0.98400
O1001       O  0.86485907  0.46022844  0.92560832    -0.74800
O1002       O  0.91009926  0.03789815  0.81693797    -0.80000
C1003       C  0.89872381  0.06136043  0.90066981     1.01100
C1004       C  0.89276061  0.05051811  0.79072922     1.07000
O1005       O  0.87730788  0.06827745  0.87701209    -0.75600
C1006       C  0.89209324  0.45516347  0.92830323     1.05300
Fe1007     Fe  0.81129228  0.47425952  0.11734021     1.65800
Fe1008     Fe  0.87616798  0.99978611  0.14848687     1.73200
Fe1009     Fe  0.81962530  0.04724516  0.13107329     1.54400
O1010       O  0.79938122  0.03590151  0.07325190    -0.79300
O1011       O  0.87708106  0.02923606  0.19762472    -0.77700
O1012       O  0.81017345  0.98791372  0.06008462    -0.81900
O1013       O  0.77220017  0.99932135  0.12500963    -0.76700
O1014       O  0.85477675  0.06321012  0.09603922    -0.78500
O1015       O  0.86086556  0.46589779  0.18229645    -0.81200
C1016       C  0.76740514  0.01098142  0.15869304     0.99500
C1017       C  0.80286736  0.01399695  0.04825565     1.07000
O1018       O  0.83611476  0.00797106  0.13215515    -1.10200
O1019       O  0.88312928  0.47176616  0.09727867    -0.72600
O1020       O  0.84390683  0.44384127  0.10780826    -0.76100
O1021       O  0.78412098  0.03216353  0.16958430    -0.76800
C1022       C  0.86961859  0.44740291  0.09420326     0.98400
O1023       O  0.81182269  0.46502398  0.17921383    -0.74800
O1024       O  0.89248828  0.03224960  0.11100415    -0.80000
C1025       C  0.86430023  0.05366955  0.20558385     1.01100
C1026       C  0.88167047  0.05483684  0.09295187     1.07000
O1027       O  0.84178576  0.06274678  0.18490425    -0.75600
C1028       C  0.83572306  0.46819550  0.19934017     1.05300
Fe1029     Fe  0.68262577  0.48865732  0.88150755     1.65800
Fe1030     Fe  0.61735189  0.46060194  0.85243165     1.73200
Fe1031     Fe  0.67376407  0.41555773  0.87984787     1.54400
O1032       O  0.70995929  0.42815133  0.84095364    -0.79300
O1033       O  0.60023759  0.43031993  0.89268328    -0.77700
O1034       O  0.72046514  0.46454640  0.88107615    -0.81900
O1035       O  0.68033062  0.47932598  0.94250685    -0.76700
O1036       O  0.65300588  0.39577439  0.82803324    -0.78500
O1037       O  0.60974548  0.49237303  0.89652743    -0.81200
C1038       C  0.68831814  0.45431990  0.95749708     0.99500
C1039       C  0.72626705  0.45025048  0.84963683     1.07000
O1040       O  0.65690701  0.45433385  0.87235754    -1.10200
O1041       O  0.63513153  0.49197992  0.81336144    -0.72600
O1042       O  0.68404808  0.49324420  0.81875401    -0.76100
O1043       O  0.69316937  0.43115774  0.93548248    -0.76800
C1044       C  0.66072285  0.48865854  0.79803561     0.98400
O1045       O  0.64943816  0.51957742  0.88548350    -0.74800
O1046       O  0.61908791  0.42839830  0.80666200    -0.80000
C1047       C  0.61113485  0.41101394  0.91698076     1.01100
C1048       C  0.63202253  0.40341184  0.80361436     1.07000
O1049       O  0.63817636  0.40276577  0.91673606    -0.75600
C1050       C  0.62328467  0.51680722  0.89803619     1.05300
Fe1051     Fe  0.64910830  0.49993168  0.13823902     1.65800
Fe1052     Fe  0.58302274  0.46611723  0.14979155     1.73200
Fe1053     Fe  0.64661481  0.42602756  0.15149059     1.54400
O1054       O  0.66416672  0.43281004  0.09416371    -0.79300
O1055       O  0.58034209  0.42921103  0.19081609    -0.77700
O1056       O  0.67891715  0.48001714  0.09774407    -0.81900
O1057       O  0.67408288  0.49142682  0.18821888    -0.76700
O1058       O  0.61157435  0.40383987  0.12254387    -0.78500
O1059       O  0.58305860  0.49418854  0.19865484    -0.81200
C1060       C  0.69327429  0.47152146  0.18744692     0.99500
C1061       C  0.67723439  0.45527541  0.07922830     1.07000
O1062       O  0.62637016  0.46401704  0.14723043    -1.10200
O1063       O  0.58011442  0.50289599  0.11125753    -0.72600
O1064       O  0.62523155  0.51137205  0.08729023    -0.76100
O1065       O  0.68659664  0.44501138  0.17663913    -0.76800
C1066       C  0.59791088  0.51666423  0.08785768     0.98400
O1067       O  0.61990855  0.52093102  0.17666075    -0.74800
O1068       O  0.58199333  0.44000591  0.09972146    -0.80000
C1069       C  0.59831187  0.41436751  0.21359262     1.01100
C1070       C  0.59063514  0.41346075  0.09967591     1.07000
O1071       O  0.62649763  0.41602063  0.20850488    -0.75600
C1072       C  0.60755359  0.50639349  0.20536156     1.05300
Fe1073     Fe  0.47666370  0.30724730  0.39103106     1.65800
Fe1074     Fe  0.50247784  0.37502030  0.36583035     1.73200
Fe1075     Fe  0.54890813  0.31651445  0.37411768     1.54400
O1076       O  0.53970235  0.29212334  0.42937894    -0.79300
O1077       O  0.52951646  0.37762548  0.31379037    -0.77700
O1078       O  0.49314830  0.30316612  0.44916832    -0.81900
O1079       O  0.49879728  0.26939552  0.37770996    -0.76700
O1080       O  0.56683893  0.34926870  0.41155700    -0.78500
O1081       O  0.46666927  0.36055555  0.33200332    -0.81200
C1082       C  0.51088533  0.26626160  0.34367907     0.99500
C1083       C  0.51927669  0.29386278  0.45689933     1.07000
O1084       O  0.51007787  0.33376660  0.37807791    -1.10200
O1085       O  0.47630663  0.37893962  0.41741416    -0.72600
O1086       O  0.94700497  0.33978447  0.41083547    -0.76100
O1087       O  0.53193233  0.28356847  0.33361064    -0.76800
C1088       C  0.95151932  0.36519944  0.42512862     0.98400
O1089       O  0.96246008  0.31161887  0.33274972    -0.74800
O1090       O  0.53730824  0.38882630  0.40052563    -0.80000
C1091       C  0.55374201  0.36521583  0.30370112     1.01100
C1092       C  0.55989277  0.37648179  0.41641420     1.07000
O1093       O  0.56305437  0.34172634  0.32205710    -0.75600
C1094       C  0.96724700  0.33613950  0.31460967     1.05300
Fe1095     Fe  0.49848086  0.30452402  0.65826989     1.65800
Fe1096     Fe  0.53020109  0.37117275  0.66616762     1.73200
Fe1097     Fe  0.57237076  0.31229087  0.64716511     1.54400
O1098       O  0.56073425  0.26829475  0.66748591    -0.79300
O1099       O  0.54716657  0.37878003  0.60987218    -0.77700
O1100       O  0.51890882  0.27703753  0.69809097    -0.81900
O1101       O  0.51212139  0.28350500  0.60370789    -0.76700
O1102       O  0.58792654  0.32769365  0.70491629    -0.78500
O1103       O  0.48838070  0.37538983  0.64068467    -0.81200
C1104       C  0.53364261  0.28846695  0.57899266     0.99500
C1105       C  0.53731516  0.25899278  0.68522874     1.07000
O1106       O  0.53337702  0.32927649  0.65680269    -1.10200
O1107       O  0.51391534  0.36251251  0.72198927    -0.72600
O1108       O  0.98299078  0.32418957  0.71450858    -0.76100
O1109       O  0.55802512  0.29995221  0.59004262    -0.76800
C1110       C  0.49779281  0.34169870  0.73513771     0.98400
O1111       O  0.97306768  0.33172631  0.62283548    -0.74800
O1112       O  0.57183518  0.37407323  0.69507020    -0.80000
C1113       C  0.57382363  0.37302993  0.60219543     1.01100
C1114       C  0.58835380  0.35546037  0.71400810     1.07000
O1115       O  0.58786719  0.35178497  0.61969303    -0.75600
C1116       C  0.96988587  0.35936269  0.62441643     1.05300
Fe1117     Fe  0.00379593  0.14506145  0.36092959     1.65800
Fe1118     Fe  0.96738506  0.07993015  0.35312205     1.71600
Fe1119     Fe  0.92978292  0.14481043  0.35662315     1.54400
O1120       O  0.94083445  0.16133255  0.41337612    -0.79300
O1121       O  0.92829693  0.07858217  0.31671671    -0.77700
O1122       O  0.98757712  0.17547788  0.40345191    -0.81900
O1123       O  0.99381419  0.17111475  0.31218441    -0.76700
O1124       O  0.90846910  0.11028280  0.38822737    -0.78500
O1125       O  0.99138262  0.08004825  0.30018360    -0.81200
C1126       C  0.97407180  0.19046637  0.31481809     0.99500
C1127       C  0.96467679  0.17299787  0.42594996     1.07000
O1128       O  0.96689304  0.12343101  0.35610230    -1.10200
O1129       O  0.00614323  0.07579786  0.38762422    -0.72600
O1130       O  0.51603803  0.12058999  0.41158905    -0.76100
O1131       O  0.94833298  0.18413316  0.32896914    -0.76800
C1132       C  0.52069405  0.09318480  0.41069505     0.98400
O1133       O  0.02118617  0.11481059  0.32067491    -0.74800
O1134       O  0.94444885  0.07886437  0.40631486    -0.80000
C1135       C  0.91345031  0.09734138  0.29516337     1.01100
C1136       C  0.91854312  0.08879763  0.40986590     1.07000
O1137       O  0.91606641  0.12545419  0.30065142    -0.75600
C1138       C  0.00476383  0.10391742  0.29304398     1.05300
Fe1139     Fe  0.02217575  0.13363627  0.59818621     1.65800
Fe1140     Fe  0.98656288  0.07048760  0.62712183     1.73200
Fe1141     Fe  0.95054971  0.13728486  0.62672155     1.54400
O1142       O  0.97462375  0.17298687  0.65533240    -0.79300
O1143       O  0.95728559  0.06765990  0.58040128    -0.77700
O1144       O  0.02237974  0.16587949  0.64009366    -0.81900
O1145       O  0.00241662  0.16119867  0.55552226    -0.76700
O1146       O  0.94134591  0.11726198  0.68462777    -0.78500
O1147       O  0.02172641  0.06276781  0.58765304    -0.81200
C1148       C  0.97558358  0.16568014  0.54614503     0.99500
C1149       C  0.00220574  0.18028137  0.65731461     1.07000
O1150       O  0.98612521  0.11437281  0.61798069    -1.10200
O1151       O  0.01721323  0.07314053  0.67320211    -0.72600
O1152       O  0.54291708  0.10434706  0.64019135    -0.76100
O1153       O  0.95417927  0.15769558  0.56899557    -0.76800
C1154       C  0.02914173  0.09827309  0.67287324     0.98400
O1155       O  0.52466266  0.10325752  0.55134737    -0.74800
O1156       O  0.95200155  0.07024431  0.67064084    -0.80000
C1157       C  0.93200940  0.07973538  0.57913895     1.01100
C1158       C  0.93902002  0.08947408  0.69269281     1.07000
O1159       O  0.92537115  0.10378092  0.59788281    -0.75600
C1160       C  0.53343779  0.07752446  0.55904261     1.05300
Fe1161     Fe  0.02119526  0.33084450  0.91369011     1.65800
Fe1162     Fe  0.98602050  0.39406361  0.88484124     1.73200
Fe1163     Fe  0.94939227  0.32799132  0.88540268     1.54400
O1164       O  0.97266186  0.29182801  0.85616617    -0.79300
O1165       O  0.95896963  0.39658923  0.93370386    -0.77700
O1166       O  0.02021709  0.29753780  0.87349331    -0.81900
O1167       O  0.00112550  0.30500233  0.95812693    -0.76700
O1168       O  0.94016298  0.34827050  0.82793777    -0.78500
O1169       O  0.02311598  0.40185901  0.92093366    -0.81200
C1170       C  0.97416188  0.29991543  0.96622004     0.99500
C1171       C  0.00009302  0.28370568  0.85536528     1.07000
O1172       O  0.98525468  0.35028792  0.89412539    -1.10200
O1173       O  0.01463580  0.39032435  0.83691253    -0.72600
O1174       O  0.54101508  0.35576739  0.86762873    -0.76100
O1175       O  0.95302899  0.30709492  0.94233709    -0.76800
C1176       C  0.02638671  0.36499255  0.83721046     0.98400
O1177       O  0.52549925  0.36056542  0.95742179    -0.74800
O1178       O  0.94960194  0.39505627  0.84400240    -0.80000
C1179       C  0.93323018  0.38567629  0.93486529     1.01100
C1180       C  0.93703483  0.37608176  0.82111411     1.07000
O1181       O  0.92539574  0.36225584  0.91529190    -0.75600
C1182       C  0.53581795  0.38518823  0.94717475     1.05300
Fe1183     Fe  0.00420662  0.31999672  0.14822806     1.65800
Fe1184     Fe  0.97045562  0.38629062  0.15946543     1.73200
Fe1185     Fe  0.93057576  0.32284088  0.15708960     1.54400
O1186       O  0.93920718  0.30671880  0.09913485    -0.79300
O1187       O  0.93263116  0.38871644  0.19826249    -0.77700
O1188       O  0.98534149  0.29008063  0.10742282    -0.81900
O1189       O  0.99520548  0.29426071  0.19746151    -0.76700
O1190       O  0.90921673  0.35871290  0.12808278    -0.78500
O1191       O  0.99658321  0.38501456  0.21053682    -0.81200
C1192       C  0.97527673  0.27518109  0.19475989     0.99500
C1193       C  0.96216859  0.29375849  0.08575207     1.07000
O1194       O  0.96831935  0.34288372  0.15598670    -1.10200
O1195       O  0.00829688  0.38900814  0.12315288    -0.72600
O1196       O  0.51510175  0.34535823  0.09516755    -0.76100
O1197       O  0.94916379  0.28230847  0.18229828    -0.76800
C1198       C  0.52132636  0.37241698  0.09674969     0.98400
O1199       O  0.02437733  0.34947255  0.18716403    -0.74800
O1200       O  0.94563147  0.38868071  0.10784264    -0.80000
C1201       C  0.91752105  0.37040165  0.22006453     1.01100
C1202       C  0.91912176  0.38024663  0.10651241     1.07000
O1203       O  0.91921714  0.34218242  0.21427777    -0.75600
C1204       C  0.00975169  0.36078442  0.21631815     1.05300
Fe1205     Fe  0.49949071  0.16092958  0.84631605     1.65800
Fe1206     Fe  0.52925102  0.09289666  0.84262591     1.73200
Fe1207     Fe  0.57302733  0.15154342  0.85731111     1.54400
O1208       O  0.56161988  0.19653038  0.84017923    -0.79300
O1209       O  0.54982234  0.08572481  0.89726097    -0.77700
O1210       O  0.52201572  0.18646944  0.80671751    -0.81900
O1211       O  0.51386307  0.18054136  0.90204201    -0.76700
O1212       O  0.58601222  0.13583209  0.79834411    -0.78500
O1213       O  0.48900004  0.09023522  0.87272189    -0.81200
C1214       C  0.53560385  0.17510573  0.92663971     0.99500
C1215       C  0.53822596  0.20532837  0.82198753     1.07000
O1216       O  0.53343418  0.13494839  0.84955203    -1.10200
O1217       O  0.50981473  0.09955445  0.78778843    -0.72600
O1218       O  0.98378959  0.14347824  0.79209513    -0.76100
O1219       O  0.55989517  0.16332661  0.91530163    -0.76800
C1220       C  0.49730891  0.12183972  0.77167798     0.98400
O1221       O  0.97120841  0.13616882  0.88276243    -0.74800
O1222       O  0.56894156  0.08971469  0.80926683    -0.80000
C1223       C  0.57736362  0.08957089  0.89879899     1.01100
C1224       C  0.58508549  0.10796744  0.78919115     1.07000
O1225       O  0.58983341  0.11157715  0.88130835    -0.75600
C1226       C  0.96901162  0.10849416  0.88693183     1.05300
Fe1227     Fe  0.47742199  0.16094511  0.11476097     1.65800
Fe1228     Fe  0.49961668  0.09234692  0.14324466     1.73200
Fe1229     Fe  0.54891416  0.14797037  0.13340307     1.54400
O1230       O  0.54112646  0.17206702  0.07712238    -0.79300
O1231       O  0.52599973  0.08933201  0.19663532    -0.77700
O1232       O  0.49427591  0.16300319  0.05667204    -0.81900
O1233       O  0.50163352  0.19768445  0.12708189    -0.76700
O1234       O  0.56495372  0.11386358  0.09669278    -0.78500
O1235       O  0.46390462  0.10932456  0.17473721    -0.81200
C1236       C  0.51297744  0.20051889  0.16172571     0.99500
C1237       C  0.52083255  0.17090101  0.04914543     1.07000
O1238       O  0.50933128  0.13284758  0.12941547    -1.10200
O1239       O  0.47393890  0.08897463  0.09093036    -0.72600
O1240       O  0.94700659  0.12756403  0.09688333    -0.76100
O1241       O  0.53318168  0.18236320  0.17284920    -0.76800
C1242       C  0.95053771  0.10156009  0.08406491     0.98400
O1243       O  0.96319681  0.15648161  0.17438986    -0.74800
O1244       O  0.53407417  0.07594102  0.11027083    -0.80000
C1245       C  0.55109406  0.10019050  0.20640528     1.01100
C1246       C  0.55678745  0.08690528  0.09317557     1.07000
O1247       O  0.56182544  0.12247400  0.18662761    -0.75600
C1248       C  0.96523151  0.13173890  0.19312928     1.05300
C1249       C  0.53184087  0.18008904  0.97014491    -0.10900
C1250       C  0.52799937  0.17831571  0.00696264    -0.12500
C1251       C  0.50057543  0.22388329  0.18703278    -0.10900
C1252       C  0.98563528  0.24464621  0.19659115    -0.12500
C1253       C  0.01090145  0.25716068  0.83533613    -0.10900
C1254       C  0.52540559  0.23476908  0.82639716    -0.12500
C1255       C  0.96720958  0.28844908  0.00639154    -0.10900
C1256       C  0.96339565  0.28640411  0.04295190    -0.12500
C1257       C  0.01513198  0.11888898  0.69946239    -0.10900
C1258       C  0.00121934  0.12635160  0.72895565    -0.12500
C1259       C  0.99205786  0.12191619  0.26163758    -0.10900
C1260       C  0.97789532  0.13063406  0.23289340    -0.12500
C1261       C  0.96675065  0.18009874  0.46889526    -0.10900
C1262       C  0.96953787  0.17750809  0.50567763    -0.12500
C1263       C  0.99892478  0.33748137  0.78048786    -0.10900
C1264       C  0.01196104  0.34444629  0.81097525    -0.12500
C1265       C  0.52742108  0.22843909  0.68406315    -0.10900
C1266       C  0.01289697  0.20672443  0.67738421    -0.12500
C1267       C  0.98244376  0.33602815  0.27664742    -0.10900
C1268       C  0.99763477  0.34313545  0.24823885    -0.12500
C1269       C  0.98438902  0.22076186  0.31057040    -0.10900
C1270       C  0.49895945  0.24289312  0.31824581    -0.12500
C1271       C  0.52957242  0.28344184  0.53565187    -0.10900
C1272       C  0.52586761  0.28559822  0.49889711    -0.12500
C1273       C  0.58535562  0.39474694  0.24564021    -0.10900
C1274       C  0.57176637  0.37969553  0.27120511    -0.12500
C1275       C  0.57162002  0.39348524  0.07923766    -0.10900
C1276       C  0.54785630  0.38198423  0.07765469    -0.12500
C1277       C  0.58750229  0.04249805  0.07218765    -0.10900
C1278       C  0.57511440  0.06602130  0.07277587    -0.12500
C1279       C  0.62097954  0.38267000  0.77206604    -0.10900
C1280       C  0.60789052  0.36770252  0.74621067    -0.12500
C1281       C  0.59054119  0.39816637  0.94504617    -0.10900
C1282       C  0.56603026  0.39159765  0.95588619    -0.12500
C1283       C  0.69125734  0.45233701  0.00132520    -0.10900
C1284       C  0.68824718  0.45316577  0.03807049    -0.12500
C1285       C  0.59492200  0.06524291  0.91255533    -0.10900
C1286       C  0.60823739  0.04224276  0.91173097    -0.12500
C1287       C  0.89287384  0.08533309  0.26378662    -0.10900
C1288       C  0.87769848  0.07215962  0.23823301    -0.12500
C1289       C  0.92511112  0.08660925  0.06888894    -0.10900
C1290       C  0.90249254  0.07293168  0.07177396    -0.12500
C1291       C  0.72350023  0.48226665  0.19012606    -0.10900
C1292       C  0.74509836  0.49707906  0.18093069    -0.12500
C1293       C  0.88507392  0.42170898  0.08153224    -0.10900
C1294       C  0.89926771  0.39950030  0.08567220    -0.12500
C1295       C  0.92090836  0.07851640  0.72770850    -0.10900
C1296       C  0.90677032  0.06657502  0.75577969    -0.12500
C1297       C  0.92037462  0.08315755  0.91015995    -0.10900
C1298       C  0.94285999  0.09686745  0.90547033    -0.12500
C1299       C  0.77113053  0.47723806  0.81417096    -0.10900
C1300       C  0.74991851  0.46214770  0.82420995    -0.12500
C1301       C  0.79920691  0.01849812  0.00440581    -0.10900
C1302       C  0.80140675  0.01870623  0.96730785    -0.12500
C1303       C  0.90088913  0.42921677  0.95057680    -0.10900
C1304       C  0.91188128  0.40498504  0.95226579    -0.12500
C1305       C  0.61383720  0.07846707  0.72970565    -0.10900
C1306       C  0.60262817  0.09479066  0.75558799    -0.12500
C1307       C  0.58680016  0.06099799  0.55705405    -0.10900
C1308       C  0.56260070  0.06940958  0.54728039    -0.12500
C1309       C  0.66244978  0.47468803  0.75947629    -0.10900
C1310       C  0.65393330  0.46350058  0.72864167    -0.12500
C1311       C  0.59809554  0.41960488  0.57351731    -0.10900
C1312       C  0.58903757  0.39499396  0.57915242    -0.12500
C1313       C  0.56838077  0.08536981  0.24030232    -0.10900
C1314       C  0.58173038  0.07056200  0.26697660    -0.12500
C1315       C  0.54604451  0.08231165  0.43169124    -0.10900
C1316       C  0.56966561  0.07044677  0.43306032    -0.12500
C1317       C  0.62392432  0.49279808  0.23763721    -0.10900
C1318       C  0.62474116  0.47560092  0.26578259    -0.12500
C1319       C  0.69189267  0.01182615  0.47220334    -0.10900
C1320       C  0.69560019  0.01185208  0.50899703    -0.12500
C1321       C  0.57967545  0.39614592  0.43660670    -0.10900
C1322       C  0.59278243  0.41925955  0.43667073    -0.12500
C1323       C  0.91860699  0.38721335  0.78652231    -0.10900
C1324       C  0.90441804  0.39911042  0.75844984    -0.12500
C1325       C  0.92136257  0.38603407  0.60320964    -0.10900
C1326       C  0.94381730  0.37212519  0.60707307    -0.12500
C1327       C  0.87056376  0.48593500  0.74665604    -0.10900
C1328       C  0.87322202  0.47020977  0.77626549    -0.12500
C1329       C  0.76348533  0.47695599  0.69334717    -0.10900
C1330       C  0.74046065  0.48943580  0.68377420    -0.12500
C1331       C  0.89662172  0.03839158  0.56369889    -0.10900
C1332       C  0.90952727  0.06158993  0.56202764    -0.12500
C1333       C  0.88242964  0.39692284  0.27693707    -0.10900
C1334       C  0.89749146  0.38314844  0.25176148    -0.12500
C1335       C  0.90485379  0.39506809  0.44171165    -0.10900
C1336       C  0.92697312  0.38038698  0.44247772    -0.12500
C1337       C  0.83443056  0.48079782  0.23893278    -0.10900
C1338       C  0.83557933  0.49352669  0.27090837    -0.12500
C1339       C  0.74725252  0.47231167  0.32848904    -0.10900
C1340       C  0.72555751  0.48653942  0.31792037    -0.12500
C1341       C  0.80092521  0.45095313  0.50797989    -0.10900
C1342       C  0.80255893  0.45018849  0.54512571    -0.12500
C1343       C  0.88491194  0.04872547  0.43707457    -0.10900
C1344       C  0.89901864  0.07091808  0.43316787    -0.12500
Fe1345     Fe  0.81234661  0.99731682  0.39454980     1.65800
Fe1346     Fe  0.87946685  0.97277253  0.36466193     1.73200
Fe1347     Fe  0.82313496  0.92504345  0.37906582     1.54400
O1348       O  0.80096631  0.93452803  0.43579623    -0.79300
O1349       O  0.88102560  0.94469239  0.31332129    -0.77700
O1350       O  0.81193339  0.98158652  0.45303185    -0.81900
O1351       O  0.77479862  0.97384301  0.38466117    -0.76700
O1352       O  0.85768785  0.90881683  0.41518285    -0.78500
O1353       O  0.86259571  0.00742734  0.32977491    -0.81200
C1354       C  0.77058077  0.96159994  0.35100753     0.99500
C1355       C  0.80395631  0.95535018  0.46249703     1.07000
O1356       O  0.83920819  0.96442809  0.38018531    -1.10200
O1357       O  0.88455977  0.99995940  0.41509470    -0.72600
O1358       O  0.84427639  0.02724590  0.40854123    -0.76100
O1359       O  0.78804509  0.94085546  0.34017232    -0.76800
C1360       C  0.87017717  0.02351406  0.42144112     0.98400
O1361       O  0.81362426  0.00998990  0.33412967    -0.74800
O1362       O  0.89582379  0.93898025  0.39997446    -0.80000
C1363       C  0.86943501  0.91956961  0.30556165     1.01100
C1364       C  0.88478679  0.91647520  0.41779055     1.07000
O1365       O  0.84701203  0.91014597  0.32600681    -0.75600
C1366       C  0.83704594  0.00612548  0.31343340     1.05300
Fe1367     Fe  0.83878124  0.99619777  0.64296233     1.65800
Fe1368     Fe  0.90577549  0.96248050  0.64735890     1.73200
Fe1369     Fe  0.84282300  0.92266900  0.65695797     1.54400
O1370       O  0.80290245  0.94156187  0.68118457    -0.79300
O1371       O  0.90477981  0.93336618  0.60004179    -0.77700
O1372       O  0.81676806  0.98673437  0.69516882    -0.81900
O1373       O  0.80857060  0.97490283  0.60369181    -0.76700
O1374       O  0.86422695  0.91625191  0.71405386    -0.78500
O1375       O  0.90628322  0.99757077  0.60532490    -0.81200
C1376       C  0.81113137  0.95037370  0.58447491     0.99500
C1377       C  0.79690748  0.96772483  0.69348629     1.07000
O1378       O  0.86257305  0.96062563  0.64911391    -1.10200
O1379       O  0.90836510  0.99250173  0.69369599    -0.72600
O1380       O  0.86855447  0.01797531  0.67974710    -0.76100
O1381       O  0.82464771  0.92793219  0.59937428    -0.76800
C1382       C  0.88419806  0.00334751  0.70519503     0.98400
O1383       O  0.85959759  0.00953998  0.59072236    -0.74800
O1384       O  0.90989280  0.92810444  0.69220156    -0.80000
C1385       C  0.89879335  0.90660228  0.60738165     1.01100
C1386       C  0.89259232  0.91548129  0.71818021     1.07000
O1387       O  0.87775550  0.89893713  0.63099073    -0.75600
C1388       C  0.88699338  0.01282812  0.58594080     1.05300
Fe1389     Fe  0.65028143  0.96572056  0.37225756     1.65800
Fe1390     Fe  0.58547777  0.49768840  0.35726083     1.73200
Fe1391     Fe  0.64778562  0.53955314  0.35676571     1.54400
O1392       O  0.66656738  0.53084997  0.41336293    -0.79300
O1393       O  0.58100651  0.53517142  0.31658594    -0.77700
O1394       O  0.68264896  0.48420679  0.40562574    -0.81900
O1395       O  0.67604497  0.47793335  0.31357569    -0.76700
O1396       O  0.61263826  0.56006253  0.38718314    -0.78500
O1397       O  0.58315106  0.97132607  0.31406039    -0.81200
C1398       C  0.69531719  0.49736287  0.31769742     0.99500
C1399       C  0.68073693  0.50816612  0.42610815     1.07000
O1400       O  0.62876444  0.50071153  0.35916534    -1.10200
O1401       O  0.58179296  0.96121265  0.40149103    -0.72600
O1402       O  0.62753714  0.95206635  0.42319235    -0.76100
O1403       O  0.68821754  0.52318292  0.33045341    -0.76800
C1404       C  0.60018318  0.94682495  0.42351127     0.98400
O1405       O  0.62109772  0.94482390  0.33371759    -0.74800
O1406       O  0.58377500  0.52305424  0.40819419    -0.80000
C1407       C  0.59829020  0.55136933  0.29452992     1.01100
C1408       C  0.59180231  0.54972374  0.40926051     1.07000
O1409       O  0.62653365  0.55097410  0.30035743    -0.75600
C1410       C  0.60770388  0.95960420  0.30605350     1.05300
Fe1411     Fe  0.66825751  0.96573239  0.61808305     1.65800
Fe1412     Fe  0.60294368  0.50241506  0.64121134     1.73200
Fe1413     Fe  0.66550113  0.54111199  0.62352086     1.54400
O1414       O  0.70398530  0.52294149  0.65437006    -0.79300
O1415       O  0.59387809  0.52404990  0.58831538    -0.77700
O1416       O  0.69869530  0.47357213  0.65252146    -0.81900
O1417       O  0.68828986  0.48226703  0.56403941    -0.76700
O1418       O  0.64892787  0.55664704  0.68016894    -0.78500
O1419       O  0.59892077  0.95902518  0.62102873    -0.81200
C1420       C  0.68947189  0.50767724  0.54735426     0.99500
C1421       C  0.71265236  0.49631449  0.66325567     1.07000
O1422       O  0.64502156  0.50368959  0.62660988    -1.10200
O1423       O  0.61433412  0.48112329  0.69359909    -0.72600
O1424       O  0.64804299  0.94475992  0.66733466    -0.76100
O1425       O  0.68213226  0.53124678  0.56578308    -0.76800
C1426       C  0.64083235  0.95820280  0.69987930     0.98400
O1427       O  0.63591191  0.95434919  0.57790702    -0.74800
O1428       O  0.60219341  0.54272046  0.67364055    -0.80000
C1429       C  0.60462898  0.54868510  0.57681906     1.01100
C1430       C  0.62176064  0.55889475  0.69037119     1.07000
O1431       O  0.62870887  0.55976083  0.59129069    -0.75600
C1432       C  0.61128190  0.94622767  0.59121036     1.05300
Fe1433     Fe  0.83971603  0.97019367  0.86840575     1.65800
Fe1434     Fe  0.90961300  0.50181779  0.86070908     1.73200
Fe1435     Fe  0.84492156  0.53939410  0.84809186     1.54400
O1436       O  0.80587972  0.51700819  0.82500956    -0.79300
O1437       O  0.90823516  0.53341341  0.90485163    -0.77700
O1438       O  0.82090488  0.47096425  0.81853862    -0.81900
O1439       O  0.81178981  0.48929462  0.90656364    -0.76700
O1440       O  0.86647282  0.54503716  0.79072277    -0.78500
O1441       O  0.90674952  0.96999328  0.90667482    -0.81200
C1442       C  0.81391590  0.51464791  0.92346078     0.99500
C1443       C  0.80070817  0.48972865  0.81646288     1.07000
O1444       O  0.86610668  0.50266937  0.85943276    -1.10200
O1445       O  0.91284271  0.46897977  0.81795186    -0.72600
O1446       O  0.86990637  0.94764322  0.83349047    -0.76100
O1447       O  0.82684603  0.53646186  0.90627565    -0.76800
C1448       C  0.88523696  0.96179525  0.80740314     0.98400
O1449       O  0.86021164  0.95769400  0.92146255    -0.74800
O1450       O  0.91260091  0.53437421  0.81243786    -0.80000
C1451       C  0.90070502  0.55960254  0.89591880     1.01100
C1452       C  0.89484741  0.54666795  0.78637591     1.07000
O1453       O  0.87896219  0.56551601  0.87229559    -0.75600
C1454       C  0.88770908  0.95436890  0.92582138     1.05300
Fe1455     Fe  0.80948562  0.97484209  0.12006061     1.65800
Fe1456     Fe  0.87766084  0.49986007  0.14641659     1.73200
Fe1457     Fe  0.82090647  0.54682618  0.12896474     1.54400
O1458       O  0.80069351  0.53545251  0.07118494    -0.79300
O1459       O  0.87799264  0.52834778  0.19640240    -0.77700
O1460       O  0.81209231  0.48767139  0.05767313    -0.81900
O1461       O  0.77350574  0.49808273  0.12277855    -0.76700
O1462       O  0.85590490  0.56335174  0.09432639    -0.78500
O1463       O  0.85960797  0.96656306  0.18594975    -0.81200
C1464       C  0.76856876  0.51016158  0.15622442     0.99500
C1465       C  0.80458497  0.51371163  0.04604222     1.07000
O1466       O  0.83759271  0.50772655  0.12986227    -1.10200
O1467       O  0.88123469  0.97073422  0.10034744    -0.72600
O1468       O  0.84140082  0.94374138  0.11090800    -0.76100
O1469       O  0.78538203  0.53131623  0.16713394    -0.76800
C1470       C  0.86702262  0.94681440  0.09688690     0.98400
O1471       O  0.81039770  0.96619862  0.18214038    -0.74800
O1472       O  0.89415811  0.53345804  0.11073481    -0.80000
C1473       C  0.86590313  0.55327228  0.20338492     1.01100
C1474       C  0.88315405  0.55601979  0.09275182     1.07000
O1475       O  0.84347682  0.56247741  0.18254015    -0.75600
C1476       C  0.83429138  0.96843407  0.20264134     1.05300
Fe1477     Fe  0.68354644  0.98909213  0.88432841     1.65800
Fe1478     Fe  0.61910168  0.96028792  0.85227767     1.73200
Fe1479     Fe  0.67511540  0.91576370  0.88189720     1.54400
O1480       O  0.71166363  0.92914067  0.84386653    -0.79300
O1481       O  0.60147253  0.93013512  0.89219322    -0.77700
O1482       O  0.72117158  0.96477283  0.88556458    -0.81900
O1483       O  0.68000202  0.97980229  0.94510930    -0.76700
O1484       O  0.65471883  0.89520073  0.82946874    -0.78500
O1485       O  0.61047084  0.99210612  0.89587608    -0.81200
C1486       C  0.68832567  0.95499317  0.96031994     0.99500
C1487       C  0.72736360  0.95151143  0.85346708     1.07000
O1488       O  0.65817382  0.95443665  0.87399675    -1.10200
O1489       O  0.63809618  0.99141077  0.81394372    -0.72600
O1490       O  0.68664690  0.99407126  0.82177067    -0.76100
O1491       O  0.69352802  0.93176957  0.93841859    -0.76800
C1492       C  0.66415855  0.98754522  0.80042991     0.98400
O1493       O  0.65011671  0.01978616  0.88687332    -0.74800
O1494       O  0.62127288  0.92783327  0.80692766    -0.80000
C1495       C  0.61205055  0.91102903  0.91708260     1.01100
C1496       C  0.63371876  0.90258042  0.80466407     1.07000
O1497       O  0.63912111  0.90283455  0.91785232    -0.75600
C1498       C  0.62385551  0.01654587  0.89874706     1.05300
Fe1499     Fe  0.64991573  0.99930109  0.14430143     1.65800
Fe1500     Fe  0.58388395  0.96460563  0.15256767     1.73200
Fe1501     Fe  0.64766673  0.92496459  0.15344817     1.54400
O1502       O  0.66479102  0.93302846  0.09630427    -0.79300
O1503       O  0.58171301  0.92763115  0.19362373    -0.77700
O1504       O  0.67936551  0.98027278  0.10208874    -0.81900
O1505       O  0.67401046  0.98848938  0.19432554    -0.76700
O1506       O  0.61261252  0.90250750  0.12455588    -0.78500
O1507       O  0.58336673  0.99235186  0.20172281    -0.81200
C1508       C  0.69392760  0.96957055  0.19120506     0.99500
C1509       C  0.67767871  0.95594382  0.08235848     1.07000
O1510       O  0.62713815  0.96302832  0.15027264    -1.10200
O1511       O  0.58090292  0.00138410  0.11390367    -0.72600
O1512       O  0.62645381  0.01357196  0.09434490    -0.76100
O1513       O  0.68787702  0.94347203  0.17837637    -0.76800
C1514       C  0.59880290  0.01684524  0.09269683     0.98400
O1515       O  0.62113983  0.01943254  0.18400067    -0.74800
O1516       O  0.58288461  0.93862955  0.10233867    -0.80000
C1517       C  0.59993411  0.91278837  0.21606664     1.01100
C1518       C  0.59145694  0.91208580  0.10205340     1.07000
O1519       O  0.62805655  0.91436397  0.21046362    -0.75600
C1520       C  0.60777227  0.00390982  0.21070233     1.05300
Fe1521     Fe  0.47542181  0.80880708  0.38934965     1.65800
Fe1522     Fe  0.50295009  0.87579499  0.36534785     1.73200
Fe1523     Fe  0.54837659  0.81708545  0.37843719     1.54400
O1524       O  0.53655909  0.79287572  0.43269849    -0.79300
O1525       O  0.53051048  0.87671952  0.31404228    -0.77700
O1526       O  0.48944856  0.80459270  0.44881044    -0.81900
O1527       O  0.49733437  0.77052072  0.37772520    -0.76700
O1528       O  0.56488990  0.84964145  0.41739417    -0.78500
O1529       O  0.46741910  0.86218646  0.33040225    -0.81200
C1530       C  0.51133202  0.76709414  0.34515533     0.99500
C1531       C  0.51516052  0.79509414  0.45862197     1.07000
O1532       O  0.50962103  0.83463137  0.37875009    -1.10200
O1533       O  0.47621586  0.88031774  0.41614939    -0.72600
O1534       O  0.94705058  0.84221766  0.40525054    -0.76100
O1535       O  0.53299575  0.78415326  0.33700794    -0.76800
C1536       C  0.95201015  0.86719046  0.42078274     0.98400
O1537       O  0.96533503  0.81344155  0.32800230    -0.74800
O1538       O  0.53744467  0.88960921  0.40075693    -0.80000
C1539       C  0.55533002  0.86457941  0.30653217     1.01100
C1540       C  0.55862685  0.87717208  0.41988270     1.07000
O1541       O  0.56464061  0.84210867  0.32728408    -0.75600
C1542       C  0.96905549  0.83839608  0.31043277     1.05300
Fe1543     Fe  0.49498356  0.80578244  0.66070391     1.65800
Fe1544     Fe  0.52771582  0.87238001  0.66813444     1.73200
Fe1545     Fe  0.56894163  0.81266562  0.64896471     1.54400
O1546       O  0.55635000  0.76864186  0.66827477    -0.79300
O1547       O  0.54596888  0.88007570  0.61251950    -0.77700
O1548       O  0.51533703  0.77805847  0.70028144    -0.81900
O1549       O  0.50813792  0.78444570  0.60638546    -0.76700
O1550       O  0.58562771  0.82761689  0.70670826    -0.78500
O1551       O  0.48656887  0.87699719  0.64022635    -0.81200
C1552       C  0.52913460  0.78989637  0.58109458     0.99500
C1553       C  0.53279078  0.75963667  0.68595636     1.07000
O1554       O  0.53025903  0.83031979  0.65913986    -1.10200
O1555       O  0.50988737  0.86445948  0.72320587    -0.72600
O1556       O  0.98141598  0.82411579  0.71475569    -0.76100
O1557       O  0.55366485  0.80135214  0.59168557    -0.76800
C1558       C  0.49428919  0.84336052  0.73664896     0.98400
O1559       O  0.97051923  0.83132467  0.62370486    -0.74800
O1560       O  0.56902398  0.87416482  0.69931376    -0.80000
C1561       C  0.57243228  0.87346708  0.60499009     1.01100
C1562       C  0.58631938  0.85530258  0.71669828     1.07000
O1563       O  0.58562783  0.85169919  0.62229247    -0.75600
C1564       C  0.96851160  0.85909151  0.62205512     1.05300
Fe1565     Fe  0.00684338  0.64522034  0.35991576     1.65800
Fe1566     Fe  0.97138491  0.57968571  0.34831110     1.71600
Fe1567     Fe  0.93285149  0.64417724  0.35279418     1.54400
O1568       O  0.94277103  0.66026926  0.41032954    -0.79300
O1569       O  0.93318119  0.57849182  0.31020574    -0.77700
O1570       O  0.98953858  0.67492804  0.40245248    -0.81900
O1571       O  0.99759633  0.67194183  0.31168737    -0.76700
O1572       O  0.91136896  0.60921339  0.38284368    -0.78500
O1573       O  0.99694417  0.58097591  0.29668212    -0.81200
C1574       C  0.97730924  0.69076599  0.31346106     0.99500
C1575       C  0.96616928  0.67227875  0.42389000     1.07000
O1576       O  0.97024189  0.62317585  0.35293412    -1.10200
O1577       O  0.00926578  0.57556023  0.38456478    -0.72600
O1578       O  0.51901859  0.62025420  0.40937764    -0.76100
O1579       O  0.95139819  0.68389409  0.32646417    -0.76800
C1580       C  0.52360871  0.59281976  0.40831392     0.98400
O1581       O  0.02548521  0.61589431  0.31951006    -0.74800
O1582       O  0.94694103  0.57703119  0.40012581    -0.80000
C1583       C  0.91763218  0.59732401  0.28977979     1.01100
C1584       C  0.92112871  0.58725465  0.40375292     1.07000
O1585       O  0.91983364  0.62537585  0.29611163    -0.75600
C1586       C  0.00970107  0.60535724  0.29093825     1.05300
Fe1587     Fe  0.02059870  0.63411439  0.59666888     1.65800
Fe1588     Fe  0.98350446  0.57008351  0.61618934     1.73200
Fe1589     Fe  0.94846880  0.63684219  0.62253711     1.54400
O1590       O  0.97229683  0.67291050  0.65072209    -0.79300
O1591       O  0.95468388  0.57154382  0.56851871    -0.77700
O1592       O  0.02042922  0.66319417  0.64298423    -0.81900
O1593       O  0.00101153  0.66454767  0.55702128    -0.76700
O1594       O  0.94035614  0.61545409  0.67986451    -0.78500
O1595       O  0.01895830  0.56401705  0.57617169    -0.81200
C1596       C  0.97442476  0.66691854  0.54470752     0.99500
C1597       C  0.99985812  0.67915814  0.65622371     1.07000
O1598       O  0.98409189  0.61418284  0.61276682    -1.10200
O1599       O  0.01402670  0.56852433  0.66251367    -0.72600
O1600       O  0.53909233  0.60416023  0.63626579    -0.76100
O1601       O  0.95247570  0.65705727  0.56504211    -0.76800
C1602       C  0.02598747  0.59346706  0.66604134     0.98400
O1603       O  0.52314705  0.60780888  0.54708128    -0.74800
O1604       O  0.94893298  0.56883834  0.66056385    -0.80000
C1605       C  0.92870372  0.58123179  0.57270775     1.01100
C1606       C  0.93758754  0.58733885  0.68566168     1.07000
O1607       O  0.92237967  0.60383748  0.59454025    -0.75600
C1608       C  0.53159059  0.58163153  0.55243153     1.05300
Fe1609     Fe  0.02201034  0.83023062  0.90924266     1.65800
Fe1610     Fe  0.98775892  0.89453256  0.88055853     1.73200
Fe1611     Fe  0.95025526  0.82868972  0.88019210     1.54400
O1612       O  0.97317073  0.79218302  0.85128797    -0.79300
O1613       O  0.95879012  0.89800489  0.92756098    -0.77700
O1614       O  0.02084678  0.79732900  0.86812726    -0.81900
O1615       O  0.00115721  0.80429630  0.95302496    -0.76700
O1616       O  0.94168755  0.84899955  0.82271482    -0.78500
O1617       O  0.02381148  0.90161533  0.91895564    -0.81200
C1618       C  0.97405845  0.80039710  0.96155811     0.99500
C1619       C  0.00047792  0.78376069  0.85008201     1.07000
O1620       O  0.98637544  0.85062190  0.88963578    -1.10200
O1621       O  0.01807964  0.89089804  0.83433571    -0.72600
O1622       O  0.54268095  0.85603463  0.86524548    -0.76100
O1623       O  0.95313333  0.80815407  0.93761154    -0.76800
C1624       C  0.02880937  0.86515441  0.83424481     0.98400
O1625       O  0.52590824  0.86107675  0.95427317    -0.74800
O1626       O  0.95265809  0.89572107  0.83771867    -0.80000
C1627       C  0.93318787  0.88662877  0.92842799     1.01100
C1628       C  0.93940740  0.87682749  0.81544516     1.07000
O1629       O  0.92599926  0.86295226  0.90912982    -0.75600
C1630       C  0.53610721  0.88588619  0.94470745     1.05300
Fe1631     Fe  0.00424471  0.82186446  0.14331967     1.65800
Fe1632     Fe  0.96907456  0.88772538  0.15212641     1.73200
Fe1633     Fe  0.93069231  0.82328757  0.15448992     1.54400
O1634       O  0.93870811  0.80658978  0.09635800    -0.79300
O1635       O  0.93194200  0.89041094  0.19233349    -0.77700
O1636       O  0.98534706  0.79112017  0.10353255    -0.81900
O1637       O  0.99640028  0.79694839  0.19369059    -0.76700
O1638       O  0.90779038  0.85811895  0.12555904    -0.78500
O1639       O  0.99614043  0.88859506  0.20230809    -0.81200
C1640       C  0.97733944  0.77703035  0.19144176     0.99500
C1641       C  0.96193136  0.79446670  0.08217523     1.07000
O1642       O  0.96795500  0.84417700  0.15104836    -1.10200
O1643       O  0.00661241  0.89043859  0.11496046    -0.72600
O1644       O  0.51395592  0.84561458  0.09209116    -0.76100
O1645       O  0.95077942  0.78326359  0.17984032    -0.76800
C1646       C  0.52054703  0.87256799  0.09355074     0.98400
O1647       O  0.02401850  0.85242052  0.18115409    -0.74800
O1648       O  0.94315037  0.88775845  0.10130802    -0.80000
C1649       C  0.91781950  0.87249631  0.21603200     1.01100
C1650       C  0.91660612  0.87938462  0.10264358     1.07000
O1651       O  0.91995631  0.84404947  0.21156704    -0.75600
C1652       C  0.00906223  0.86441867  0.20951077     1.05300
Fe1653     Fe  0.49806817  0.66079110  0.84122574     1.65800
Fe1654     Fe  0.52818680  0.59276401  0.83809914     1.73200
Fe1655     Fe  0.57166583  0.65157157  0.85158494     1.54400
O1656       O  0.56005337  0.69638603  0.83466216    -0.79300
O1657       O  0.54951267  0.58602757  0.89227269    -0.77700
O1658       O  0.52003320  0.68690253  0.80154676    -0.81900
O1659       O  0.51260432  0.68038504  0.89704696    -0.76700
O1660       O  0.58423349  0.63625775  0.79239701    -0.78500
O1661       O  0.48856862  0.59011793  0.86969925    -0.81200
C1662       C  0.53436861  0.67466102  0.92156770     0.99500
C1663       C  0.53676638  0.70548739  0.81653874     1.07000
O1664       O  0.53212982  0.63489520  0.84409425    -1.10200
O1665       O  0.50745366  0.59852080  0.78407528    -0.72600
O1666       O  0.98464124  0.64169394  0.78623026    -0.76100
O1667       O  0.55861771  0.66294972  0.90986320    -0.76800
C1668       C  0.49419865  0.62020517  0.76757358     0.98400
O1669       O  0.97131801  0.63521159  0.87643342    -0.74800
O1670       O  0.56739928  0.58999487  0.80313537    -0.80000
C1671       C  0.57700283  0.59000439  0.89345902     1.01100
C1672       C  0.58329488  0.60847295  0.78291702     1.07000
O1673       O  0.58920703  0.61178832  0.87516792    -0.75600
C1674       C  0.96995165  0.60768169  0.88250333     1.05300
Fe1675     Fe  0.47960531  0.66271402  0.11327220     1.65800
Fe1676     Fe  0.50140232  0.59403709  0.14103880     1.73200
Fe1677     Fe  0.55118327  0.64903803  0.12933820     1.54400
O1678       O  0.54253135  0.67237822  0.07237177    -0.79300
O1679       O  0.52862775  0.59071529  0.19340156    -0.77700
O1680       O  0.49499445  0.66402089  0.05428967    -0.81900
O1681       O  0.50475881  0.69916683  0.12337610    -0.76700
O1682       O  0.56647511  0.61447431  0.09292777    -0.78500
O1683       O  0.46660939  0.61146455  0.17405524    -0.81200
C1684       C  0.51622089  0.70226163  0.15783779     0.99500
C1685       C  0.52153739  0.67120958  0.04527069     1.07000
O1686       O  0.51142839  0.63431150  0.12677360    -1.10200
O1687       O  0.47478195  0.59114266  0.08966058    -0.72600
O1688       O  0.94875654  0.63126679  0.09796907    -0.76100
O1689       O  0.53639542  0.68402623  0.16884003    -0.76800
C1690       C  0.95168799  0.60529832  0.08461254     0.98400
O1691       O  0.96863638  0.66031324  0.17392089    -0.74800
O1692       O  0.53501349  0.57711389  0.10687236    -0.80000
C1693       C  0.55388061  0.60142271  0.20258176     1.01100
C1694       C  0.55780375  0.58768458  0.08949527     1.07000
O1695       O  0.56451436  0.62372637  0.18266077    -0.75600
C1696       C  0.96981041  0.63540879  0.19245302     1.05300
C1697       C  0.53087390  0.67941846  0.96532129    -0.10900
C1698       C  0.52777023  0.67787574  0.00240545    -0.12500
C1699       C  0.50348758  0.72548587  0.18330667    -0.10900
C1700       C  0.98913046  0.74687324  0.19260682    -0.12500
C1701       C  0.01073015  0.75712870  0.82964412    -0.10900
C1702       C  0.52482258  0.73528046  0.82079235    -0.12500
C1703       C  0.96688083  0.78965390  0.00224144    -0.10900
C1704       C  0.96309208  0.78770540  0.03895089    -0.12500
C1705       C  0.01133699  0.61242281  0.69417912    -0.10900
C1706       C  0.99830441  0.62035592  0.72411621    -0.12500
C1707       C  0.99648980  0.62397156  0.26057079    -0.10900
C1708       C  0.98230600  0.63351909  0.23230891    -0.12500
C1709       C  0.96722206  0.67991333  0.46673571    -0.10900
C1710       C  0.96949134  0.67816461  0.50366389    -0.12500
C1711       C  0.99863937  0.83848182  0.77933076    -0.10900
C1712       C  0.01294135  0.84521491  0.80878354    -0.12500
C1713       C  0.52165297  0.72949323  0.68259398    -0.10900
C1714       C  0.01008352  0.70637802  0.67495060    -0.12500
C1715       C  0.98203492  0.83961937  0.27084529    -0.10900
C1716       C  0.99638793  0.84739787  0.24184242    -0.12500
C1717       C  0.98703653  0.72118599  0.30944823    -0.10900
C1718       C  0.50092770  0.74350700  0.31898835    -0.12500
C1719       C  0.52427250  0.78522173  0.53784447    -0.10900
C1720       C  0.52037973  0.78726136  0.50112159    -0.12500
C1721       C  0.58737005  0.89322831  0.24838292    -0.10900
C1722       C  0.57391488  0.87835152  0.27420320    -0.12500
C1723       C  0.57239541  0.89224289  0.08115977    -0.10900
C1724       C  0.54838121  0.88141108  0.07735363    -0.12500
C1725       C  0.58742103  0.54276573  0.06770658    -0.10900
C1726       C  0.57559883  0.56655254  0.06873081    -0.12500
C1727       C  0.62171025  0.88152748  0.77361269    -0.10900
C1728       C  0.60720743  0.86711523  0.74821788    -0.12500
C1729       C  0.59099473  0.89842914  0.94460900    -0.10900
C1730       C  0.56616038  0.89228573  0.95440303    -0.12500
C1731       C  0.69142744  0.95348162  0.00422502    -0.10900
C1732       C  0.68860202  0.95463344  0.04102602    -0.12500
C1733       C  0.59468936  0.56613084  0.90852423    -0.10900
C1734       C  0.60786793  0.54302421  0.90952974    -0.12500
C1735       C  0.89637716  0.58543403  0.25915084    -0.10900
C1736       C  0.88025781  0.57218350  0.23478416    -0.12500
C1737       C  0.92585218  0.59015953  0.07105844    -0.10900
C1738       C  0.90386806  0.57539394  0.07352291    -0.12500
C1739       C  0.72376357  0.98136757  0.19304415    -0.10900
C1740       C  0.74470456  0.99704389  0.18377969    -0.12500
C1741       C  0.88148902  0.92105095  0.08243893    -0.10900
C1742       C  0.89571008  0.89872715  0.08417011    -0.12500
C1743       C  0.92100471  0.57523692  0.72167483    -0.10900
C1744       C  0.90811402  0.56288898  0.75071827    -0.12500
C1745       C  0.92140963  0.58224166  0.90537337    -0.10900
C1746       C  0.94380615  0.59609862  0.90095492    -0.12500
C1747       C  0.76917499  0.98259317  0.81707007    -0.10900
C1748       C  0.74950766  0.96570222  0.82766223    -0.12500
C1749       C  0.80119885  0.51828661  0.00226381    -0.10900
C1750       C  0.80375806  0.51798393  0.96525012    -0.12500
C1751       C  0.89783057  0.92814594  0.94635008    -0.10900
C1752       C  0.91103293  0.90499839  0.94620311    -0.12500
C1753       C  0.61201958  0.58028287  0.72201990    -0.10900
C1754       C  0.60066219  0.59581320  0.74870774    -0.12500
C1755       C  0.58564318  0.56536798  0.55019083    -0.10900
C1756       C  0.56121872  0.57400648  0.54148012    -0.12500
C1757       C  0.66748890  0.97037400  0.76463517    -0.10900
C1758       C  0.65966801  0.95804648  0.73432358    -0.12500
C1759       C  0.59953235  0.91881021  0.57782239    -0.10900
C1760       C  0.58867044  0.89485910  0.58233188    -0.12500
C1761       C  0.57140031  0.58627609  0.23591191    -0.10900
C1762       C  0.58464540  0.57100695  0.26216062    -0.12500
C1763       C  0.54886550  0.58167166  0.42926930    -0.10900
C1764       C  0.57221931  0.56925007  0.42945173    -0.12500
C1765       C  0.62282556  0.98972413  0.24379258    -0.10900
C1766       C  0.62282300  0.97319223  0.27273466    -0.12500
C1767       C  0.69279604  0.50895950  0.46709255    -0.10900
C1768       C  0.69568250  0.50920291  0.50404146    -0.12500
C1769       C  0.57749725  0.89690822  0.44165154    -0.10900
C1770       C  0.59001249  0.92033962  0.44317502    -0.12500
C1771       C  0.92100342  0.88803890  0.78106071    -0.10900
C1772       C  0.90660714  0.89970995  0.75314399    -0.12500
C1773       C  0.92069214  0.88534360  0.59722966    -0.10900
C1774       C  0.94308391  0.87163238  0.60269555    -0.12500
C1775       C  0.87199506  0.98985710  0.74098689    -0.10900
C1776       C  0.87249742  0.97488395  0.77156625    -0.12500
C1777       C  0.76684618  0.97881809  0.69614085    -0.10900
C1778       C  0.74337228  0.99084241  0.68816768    -0.12500
C1779       C  0.89378937  0.53816553  0.56683547    -0.10900
C1780       C  0.90612598  0.56127185  0.56064001    -0.12500
C1781       C  0.88378495  0.90057382  0.27349322    -0.10900
C1782       C  0.89846974  0.88612977  0.24830247    -0.12500
C1783       C  0.90552296  0.89735004  0.43743280    -0.10900
C1784       C  0.92761637  0.88265285  0.43797037    -0.12500
C1785       C  0.83292092  0.97959819  0.24299581    -0.10900
C1786       C  0.83419639  0.99313136  0.27429430    -0.12500
C1787       C  0.74602722  0.97321543  0.32672746    -0.10900
C1788       C  0.72336101  0.98676776  0.31843834    -0.12500
C1789       C  0.79906438  0.94946436  0.50550682    -0.10900
C1790       C  0.80091050  0.94872518  0.54262062    -0.12500
C1791       C  0.88663694  0.54801987  0.43215583    -0.10900
C1792       C  0.90132762  0.56968100  0.42701518    -0.12500
loop_ 
_geom_bond_atom_site_label_1 
_geom_bond_atom_site_label_2 
_geom_bond_distance 
_geom_bond_site_symmetry_2 
_ccdc_geom_bond_type 
Fe1          O17   2.050       .  S
Fe1           O7   2.029       .  S
Fe1          O14   2.035       .  S
Fe1           O6   2.034       .  S
Fe1          O12   1.969       .  S
Fe2           O5   2.096       .  S
Fe2           O9   2.073       .  S
Fe2          O13   2.069       .  S
Fe2          O18   2.040       .  S
Fe2          O12   1.923       .  S
Fe3          O21   2.149       .  S
Fe3           O8   2.083       .  S
Fe3          O15   2.142       .  S
Fe3           O4   2.155       .  S
Fe3          O12   1.920       .  S
O4           C11   1.296       .  A
O5           C19   1.274       .  A
O6           C11   1.276       .  A
O7           C10   1.247       .  A
O8           C20   1.276       .  A
O9           C22   1.275       .  A
C10          O15   1.274       .  A
C10         C443   1.455       .  S
C11         C445   1.444       .  S
O13          C16   1.262       .  A
O14          C16   1.254       .  A
C16         C895   1.416       .  S
O17          C22   1.273       .  A
O18          C20   1.269       .  A
C19          O21   1.286       .  A
C19         C437   1.495       .  S
C20         C439   1.422       .  S
C22         C442   1.417       .  S
Fe23         O39   2.028       .  S
Fe23         O29   2.115       .  S
Fe23         O36   2.051       .  S
Fe23         O28   2.015       .  S
Fe23         O34   1.949       .  S
Fe24         O27   2.038       .  S
Fe24         O31   2.090       .  S
Fe24         O35   2.043       .  S
Fe24         O40   2.141       .  S
Fe24         O34   1.955       .  S
Fe25         O43   2.089       .  S
Fe25         O30   2.117       .  S
Fe25         O37   2.059       .  S
Fe25         O26   2.158       .  S
Fe25         O34   1.958       .  S
O26          C33   1.277       .  A
O27          C41   1.257       .  A
O28          C33   1.240       .  A
O29          C32   1.284       .  A
O30          C42   1.293       .  A
O31          C44   1.277       .  A
C32          O37   1.275       .  A
C32         C446   1.444       .  S
C33         C433   1.458       .  S
O35          C38   1.254       .  A
O36          C38   1.264       .  A
C38         C431   1.424       .  S
O39          C44   1.259       .  A
O40          C42   1.290       .  A
C41          O43   1.269       .  A
C41         C429   1.423       .  S
C42         C428   1.484       .  S
C44         C883   1.425       .  S
Fe45         O61   2.052       .  S
Fe45         O58   2.046       .  S
Fe45        O499   2.018       .  S
Fe45        O498   2.103       .  S
Fe45        O504   1.951       .  S
Fe46         O49   2.148   1_565  S
Fe46         O62   2.026   1_565  S
Fe46        O501   2.041       .  S
Fe46        O505   2.084       .  S
Fe46         O56   1.968   1_565  S
Fe47         O65   2.136       .  S
Fe47         O52   2.103       .  S
Fe47         O59   2.159       .  S
Fe47         O48   2.068       .  S
Fe47         O56   1.948       .  S
O48          C55   1.272       .  A
O49          C63   1.287       .  A
O50        Fe493   2.098       .  S
O50          C55   1.277   1_565  A
O51        Fe493   2.019       .  S
O51          C54   1.250       .  A
O52          C64   1.277       .  A
O53        Fe494   2.045       .  S
O53          C66   1.257       .  A
C54          O59   1.285   1_565  A
C54         C892   1.455       .  S
C55         C423   1.442       .  S
O56        Fe493   1.948   1_545  S
O57        Fe494   2.085       .  S
O57          C60   1.273       .  A
O58          C60   1.262       .  A
C60         C426   1.429       .  S
O61          C66   1.267       .  A
O62          C64   1.259       .  A
C63          O65   1.291       .  A
C63         C418   1.505       .  S
C64         C420   1.416       .  S
C66         C422   1.420       .  S
Fe67         O83   2.030       .  S
Fe67         O80   2.076       .  S
Fe67        O521   2.060       .  S
Fe67        O520   2.013       .  S
Fe67        O526   1.952       .  S
Fe68         O71   2.014   1_565  S
Fe68         O79   2.019       .  S
Fe68         O84   2.114   1_565  S
Fe68        O523   2.080       .  S
Fe68         O78   1.960   1_565  S
Fe69         O87   2.121       .  S
Fe69         O74   2.117       .  S
Fe69         O81   2.079       .  S
Fe69         O70   2.150       .  S
Fe69         O78   1.936       .  S
O70          C77   1.290   1_545  A
O71          C85   1.269       .  A
O72        Fe515   2.015       .  S
O72          C77   1.259       .  A
O73        Fe515   2.057       .  S
O73          C76   1.264   1_565  A
O74          C86   1.276       .  A
O75        Fe516   2.083       .  S
O75          C88   1.266       .  A
C76          O81   1.269       .  A
C76         C424   1.440       .  S
C77         C882   1.449       .  S
O78        Fe515   1.957   1_545  S
O79         C530   1.268       .  A
O80          C82   1.273       .  A
C82         O527   1.267       .  A
C82         C414   1.412       .  S
O83          C88   1.249       .  A
O84          C86   1.273       .  A
C85          O87   1.287       .  A
C85         C411   1.422       .  S
C86         C409   1.488       .  S
C88         C415   1.420       .  S
Fe89        O105   2.028       .  S
Fe89        O102   2.060       .  S
Fe89        O543   2.104       .  S
Fe89        O542   2.014       .  S
Fe89        O548   1.942       .  S
Fe90         O93   2.038       .  S
Fe90        O101   2.047   1_545  S
Fe90        O106   2.137       .  S
Fe90        O545   2.092   1_545  S
Fe90        O100   1.958       .  S
Fe91        O109   2.101       .  S
Fe91         O96   2.128       .  S
Fe91        O103   2.072       .  S
Fe91         O92   2.173       .  S
Fe91        O100   1.951       .  S
O92          C99   1.283   1_545  A
O93         C107   1.261       .  A
O94        Fe537   2.011       .  S
O94          C99   1.240       .  A
O95        Fe537   2.112       .  S
O95          C98   1.281   1_565  A
O96         C108   1.294       .  A
O97        Fe538   2.103       .  S
O97         C110   1.276       .  A
C98         O103   1.274       .  A
C98         C406   1.453       .  S
C99         C851   1.454       .  S
O100       Fe537   1.941   1_545  S
O101        C552   1.256       .  A
O102        C104   1.270       .  A
C104        O549   1.255       .  A
C104        C432   1.423       .  S
O105        C110   1.255       .  A
O106        C108   1.287       .  A
C107        O109   1.275       .  A
C107        C401   1.426       .  S
C108        C400   1.491       .  S
C110        C407   1.428       .  S
Fe111       O127   2.058       .  S
Fe111       O124   2.039       .  S
Fe111       O565   2.027       .  S
Fe111       O564   2.034       .  S
Fe111       O570   1.969       .  S
Fe112       O115   2.091       .  S
Fe112       O128   2.043       .  S
Fe112       O567   2.068   1_545  S
Fe112       O571   2.070   1_545  S
Fe112       O122   1.923       .  S
Fe113       O131   2.144       .  S
Fe113       O118   2.085       .  S
Fe113       O125   2.149       .  S
Fe113       O114   2.160       .  S
Fe113       O122   1.921       .  S
O114        C121   1.296       .  A
O115        C129   1.273       .  A
O116       Fe559   2.040       .  S
O116        C121   1.278   1_565  A
O117       Fe559   2.021       .  S
O117        C120   1.243   1_565  A
O118        C130   1.277       .  A
O119       Fe560   2.068       .  S
O119        C132   1.272       .  A
C120        O125   1.273       .  A
C120        C844   1.455   1_545  S
C121        C405   1.453       .  S
O122       Fe559   1.964   1_545  S
O123       Fe560   2.070       .  S
O123        C126   1.264       .  A
O124        C126   1.256       .  A
C126        C397   1.418       .  S
O127        C132   1.273       .  A
O128        C130   1.270       .  A
C129        O131   1.285       .  A
C129        C392   1.487       .  S
C130        C394   1.425       .  S
C132        C441   1.418       .  S
Fe133       O149   2.056       .  S
Fe133       O139   2.036       .  S
Fe133       O146   2.060       .  S
Fe133       O138   2.027       .  S
Fe133       O144   1.963       .  S
Fe134       O137   2.040       .  S
Fe134       O141   2.069       .  S
Fe134       O145   2.060       .  S
Fe134       O150   2.093       .  S
Fe134       O144   1.922       .  S
Fe135       O153   2.093       .  S
Fe135       O140   2.138       .  S
Fe135       O147   2.138       .  S
Fe135       O136   2.148       .  S
Fe135       O144   1.921       .  S
O136        C143   1.276       .  A
O137        C151   1.270       .  A
O138        C143   1.246       .  A
O139        C142   1.277       .  A
O140        C152   1.283       .  A
O141        C154   1.264       .  A
C142        O147   1.291       .  A
C142        C387   1.437   1_556  S
C143        C404   1.456       .  S
O145        C148   1.270       .  A
O146        C148   1.270       .  A
C148        C413   1.416       .  S
O149        C154   1.260       .  A
O150        C152   1.273       .  A
C151        O153   1.278       .  A
C151        C385   1.428       .  S
C152        C383   1.485       .  S
C154        C838   1.427       .  S
Fe155       O171   2.058       .  S
Fe155       O161   2.016       .  S
Fe155       O168   2.043       .  S
Fe155       O160   2.093       .  S
Fe155       O166   1.943       .  S
Fe156       O159   2.134       .  S
Fe156       O163   2.046       .  S
Fe156       O167   2.080       .  S
Fe156       O172   2.024       .  S
Fe156       O166   1.966       .  S
Fe157       O175   2.121       .  S
Fe157       O162   2.103       .  S
Fe157       O169   2.165       .  S
Fe157       O158   2.057       .  S
Fe157       O166   1.946       .  S
O158        C165   1.269       .  A
O159        C173   1.284       .  A
O160        C165   1.276       .  A
O161        C164   1.249       .  A
O162        C174   1.277       .  A
O163        C176   1.258       .  A
C164        O169   1.287       .  A
C164        C395   1.454       .  S
C165        C388   1.437       .  S
O167        C170   1.270       .  A
O168        C170   1.259       .  A
C170        C829   1.426       .  S
O171        C176   1.269       .  A
O172        C174   1.259       .  A
C173        O175   1.289       .  A
C173        C377   1.489       .  S
C174        C379   1.417       .  S
C176        C421   1.419       .  S
Fe177       O183   2.031       .  S
Fe177       O182   2.042       .  S
Fe177      O1089   2.062       .  S
Fe177      O1086   2.051       .  S
Fe177       O188   1.978   1_655  S
Fe178       O181   2.100       .  S
Fe178       O185   2.069   1_455  S
Fe178       O189   2.070   1_455  S
Fe178       O194   2.040       .  S
Fe178       O188   1.931       .  S
Fe179       O197   2.139       .  S
Fe179       O184   2.091       .  S
Fe179       O191   2.141       .  S
Fe179       O180   2.148       .  S
Fe179       O188   1.925       .  S
O180        C187   1.293       .  A
O181        C195   1.275       .  A
O182        C187   1.277   1_655  A
O183        C186   1.249   1_655  A
O184        C196   1.279       .  A
O185       C1094   1.271       .  A
C186        O191   1.275       .  A
C186        C374   1.453   1_455  S
C187        C376   1.448       .  S
O189       C1088   1.264       .  A
O190      Fe1073   2.051       .  S
O190        C192   1.259       .  A
C192       O1085   1.263       .  A
C192        C440   1.425       .  S
O193      Fe1073   2.065       .  S
O193        C198   1.270       .  A
O194        C196   1.270       .  A
C195        O197   1.283       .  A
C195        C378   1.490       .  S
C196        C425   1.427       .  S
C198       O1081   1.271       .  A
C198        C371   1.419       .  S
Fe199       O205   2.118   1_655  S
Fe199       O204   2.009   1_655  S
Fe199      O1111   2.036       .  S
Fe199      O1108   2.082       .  S
Fe199       O210   1.937   1_655  S
Fe200       O203   2.018       .  S
Fe200       O207   2.074   1_455  S
Fe200       O211   1.999       .  S
Fe200       O216   2.112       .  S
Fe200       O210   1.924       .  S
Fe201       O219   2.108       .  S
Fe201       O206   2.133       .  S
Fe201       O213   2.055       .  S
Fe201       O202   2.154       .  S
Fe201       O210   1.950       .  S
O202        C209   1.279       .  A
O203        C217   1.259       .  A
O204        C209   1.240       .  A
O205        C208   1.284       .  A
O206        C218   1.290       .  A
O207       C1116   1.268       .  A
C208        O213   1.272       .  A
C208        C375   1.447       .  S
C209        C369   1.450       .  S
O211        C214   1.262   1_455  A
O212      Fe1095   2.082       .  S
O212       C1110   1.274       .  A
C214       O1108   1.274       .  A
C214       C1263   1.416       .  S
O215      Fe1095   2.038       .  S
O215        C220   1.257       .  A
O216        C218   1.278       .  A
C217        O219   1.278       .  A
C217        C416   1.418       .  S
C218        C384   1.484       .  S
C220       O1103   1.267       .  A
C220        C430   1.425       .  S
Fe221       O237   2.060       .  S
Fe221       O227   2.017       .  S
Fe221       O226   2.091       .  S
Fe221      O1130   2.029       .  S
Fe221       O232   1.941       .  S
Fe222       O225   2.128       .  S
Fe222       O229   2.042       .  S
Fe222       O233   2.089       .  S
Fe222       O238   2.024       .  S
Fe222       O232   1.965       .  S
Fe223       O241   2.123       .  S
Fe223       O228   2.100       .  S
Fe223       O235   2.157       .  S
Fe223       O224   2.064       .  S
Fe223       O232   1.931       .  S
O224        C231   1.270       .  A
O225        C239   1.283       .  A
O226        C231   1.274       .  A
O227        C230   1.252       .  A
O228        C240   1.278       .  A
O229        C242   1.257       .  A
C230        O235   1.287       .  A
C230        C373   1.450       .  S
C231        C365   1.442       .  S
O233       C1132   1.273       .  A
O234      Fe1117   2.030       .  S
O234        C236   1.255       .  A
C236       O1129   1.273       .  A
C236        C419   1.420       .  S
O237        C242   1.270       .  A
O238        C240   1.260       .  A
C239        O241   1.288       .  A
C239        C391   1.488       .  S
C240        C448   1.416       .  S
C242        C363   1.421       .  S
Fe243       O249   2.062       .  S
Fe243       O248   2.008       .  S
Fe243      O1155   2.034       .  S
Fe243      O1152   2.068       .  S
Fe243       O254   1.957       .  S
Fe244       O247   2.023       .  S
Fe244       O251   2.080       .  S
Fe244       O255   2.047       .  S
Fe244       O260   2.118       .  S
Fe244       O254   1.998       .  S
Fe245       O263   2.120       .  S
Fe245       O250   2.129       .  S
Fe245       O257   2.093       .  S
Fe245       O246   2.163       .  S
Fe245       O254   1.934       .  S
O246        C253   1.292       .  A
O247        C261   1.265       .  A
O248        C253   1.256       .  A
O249        C252   1.267       .  A
O250        C262   1.284       .  A
O251       C1160   1.265       .  A
C252        O257   1.274       .  A
C252        C366   1.444       .  S
C253        C370   1.450       .  S
O255        C258   1.257       .  A
O256      Fe1139   2.068       .  S
O256       C1154   1.275       .  A
C258       O1152   1.275       .  A
C258        C361   1.425       .  S
O259      Fe1139   2.033       .  S
O259        C264   1.248       .  A
O260        C262   1.277       .  A
C261        O263   1.285       .  A
C261        C436   1.423       .  S
C262        C399   1.490       .  S
C264       O1147   1.265       .  A
C264        C412   1.422       .  S
Fe265       O271   2.066       .  S
Fe265       O270   2.000       .  S
Fe265      O1177   2.035       .  S
Fe265      O1174   2.076       .  S
Fe265       O276   1.948       .  S
Fe266       O269   2.015       .  S
Fe266       O273   2.076       .  S
Fe266       O277   2.039       .  S
Fe266       O282   2.114       .  S
Fe266       O276   1.993       .  S
Fe267       O285   2.134       .  S
Fe267       O272   2.118       .  S
Fe267       O279   2.081       .  S
Fe267       O268   2.170       .  S
Fe267       O276   1.932       .  S
O268        C275   1.293       .  A
O269        C283   1.265       .  A
O270        C275   1.254       .  A
O271        C274   1.270       .  A
O272        C284   1.280       .  A
O273       C1182   1.262       .  A
C274        O279   1.271       .  A
C274        C359   1.440   1_556  S
C275        C357   1.453       .  S
O277        C280   1.260       .  A
O278      Fe1161   2.076       .  S
O278       C1176   1.278       .  A
C280       O1174   1.278       .  A
C280        C368   1.425       .  S
O281      Fe1161   2.035       .  S
O281        C286   1.249       .  A
O282        C284   1.274       .  A
C283        O285   1.290       .  A
C283        C408   1.422       .  S
C284        C427   1.483       .  S
C286       O1169   1.263       .  A
C286        C386   1.427       .  S
Fe287       O303   2.060       .  S
Fe287       O293   2.016       .  S
Fe287       O292   2.086       .  S
Fe287      O1196   2.034       .  S
Fe287       O298   1.943       .  S
Fe288       O291   2.132       .  S
Fe288       O295   2.043       .  S
Fe288       O299   2.087       .  S
Fe288       O304   2.025       .  S
Fe288       O298   1.969       .  S
Fe289       O307   2.133       .  S
Fe289       O294   2.101       .  S
Fe289       O301   2.168       .  S
Fe289       O290   2.070       .  S
Fe289       O298   1.934       .  S
O290        C297   1.271       .  A
O291        C305   1.284       .  A
O292        C297   1.272       .  A
O293        C296   1.251       .  A
O294        C306   1.277       .  A
O295        C308   1.256       .  A
C296        O301   1.288       .  A
C296        C356   1.456       .  S
C297        C360   1.439       .  S
O299       C1198   1.273       .  A
O300      Fe1183   2.033       .  S
O300        C302   1.255       .  A
C302       O1195   1.273       .  A
C302        C380   1.419       .  S
O303        C308   1.270       .  A
O304        C306   1.260       .  A
C305        O307   1.291       .  A
C305        C438   1.495       .  S
C306        C398   1.417       .  S
C308        C372   1.419       .  S
Fe309       O315   2.127   1_655  S
Fe309       O314   2.006   1_655  S
Fe309      O1221   2.041       .  S
Fe309      O1218   2.068       .  S
Fe309       O320   1.936   1_655  S
Fe310       O313   2.034       .  S
Fe310       O317   2.073   1_455  S
Fe310       O321   2.014       .  S
Fe310       O326   2.108       .  S
Fe310       O320   1.926       .  S
Fe311       O329   2.096       .  S
Fe311       O316   2.141       .  S
Fe311       O323   2.060       .  S
Fe311       O312   2.161       .  S
Fe311       O320   1.959       .  S
O312        C319   1.274       .  A
O313        C327   1.260       .  A
O314        C319   1.233       .  A
O315        C318   1.289       .  A
O316        C328   1.296       .  A
O317       C1226   1.268       .  A
C318        O323   1.277       .  A
C318        C353   1.449       .  S
C319        C358   1.457       .  S
O321        C324   1.263   1_455  A
O322      Fe1205   2.068       .  S
O322       C1220   1.272       .  A
C324       O1218   1.272       .  A
C324       C1258   1.419   1_655  S
O325      Fe1205   2.041       .  S
O325        C330   1.259       .  A
O326        C328   1.279       .  A
C327        O329   1.273       .  A
C327        C389   1.422       .  S
C328        C410   1.485       .  S
C330       O1213   1.269       .  A
C330        C402   1.429       .  S
Fe331       O337   2.032   1_655  S
Fe331       O336   2.045       .  S
Fe331      O1243   2.068       .  S
Fe331      O1240   2.051       .  S
Fe331       O342   1.974   1_655  S
Fe332       O335   2.113   1_655  S
Fe332       O339   2.067       .  S
Fe332       O343   2.071       .  S
Fe332       O348   2.039   1_655  S
Fe332       O342   1.931   1_655  S
Fe333       O351   2.154       .  S
Fe333       O338   2.088       .  S
Fe333       O345   2.144       .  S
Fe333       O334   2.152       .  S
Fe333       O342   1.922       .  S
O334        C341   1.294       .  A
O335        C349   1.278       .  A
O336        C341   1.277   1_655  A
O337        C340   1.249       .  A
O338        C350   1.278       .  A
O339       C1248   1.269       .  A
C340        O345   1.276       .  A
C340        C355   1.457   1_455  S
C341        C354   1.450       .  S
O343       C1242   1.264       .  A
O344      Fe1227   2.054       .  S
O344        C346   1.260       .  A
C346       O1239   1.264       .  A
C346        C393   1.425       .  S
O347      Fe1227   2.069       .  S
O347        C352   1.271       .  A
O348        C350   1.269       .  A
C349        O351   1.286       .  A
C349        C417   1.504       .  S
C350        C382   1.424       .  S
C352       O1235   1.269       .  A
C352        C364   1.417       .  S
C353        C354   1.216   1_556  T
C355       C1252   1.221       .  T
C356       C1251   1.221       .  T
C357       C1254   1.222       .  T
C358       C1253   1.222       .  T
C359        C360   1.208       .  T
C361        C362   1.201       .  T
C362       C1220   1.417       .  S
C363        C364   1.197       .  T
C365        C366   1.210       .  T
C367       C1110   1.417       .  S
C367        C368   1.200       .  T
C369       C1266   1.218       .  T
C370       C1265   1.219       .  T
C371        C372   1.198       .  T
C373       C1270   1.218       .  T
C374       C1269   1.219       .  T
C375        C376   1.214       .  T
C377        C378   1.238       .  T
C379        C380   1.196       .  T
C381        C618   1.425       .  S
C381        C382   1.199       .  T
C383        C384   1.237       .  T
C385        C386   1.202       .  T
C387        C388   1.208       .  T
C389        C390   1.199       .  T
C390        C602   1.425       .  S
C391        C392   1.236       .  T
C393        C394   1.200       .  T
C395        C396   1.221       .  T
C396        C568   1.457       .  S
C397        C398   1.196       .  T
C399        C400   1.239       .  T
C401        C402   1.201       .  T
C403        C547   1.455       .  S
C403        C404   1.221       .  T
C405        C406   1.215   1_554  T
C407        C408   1.201       .  T
C409        C410   1.236       .  T
C411        C412   1.199       .  T
C413        C414   1.194       .  T
C415        C416   1.197       .  T
C417        C418   1.247       .  T
C419        C420   1.195       .  T
C421        C422   1.197       .  T
C423        C424   1.211       .  T
C425        C426   1.202       .  T
C427        C428   1.234       .  T
C429        C430   1.199       .  T
C431        C432   1.199       .  T
C433        C434   1.222       .  T
C434        C525   1.455       .  S
C435        C492   1.426       .  S
C435        C436   1.200       .  T
C437        C438   1.239       .  T
C439        C440   1.199       .  T
C441        C442   1.197       .  T
C443        C444   1.219       .  T
C444        C502   1.452       .  S
C445        C446   1.215       .  T
C447        C464   1.418       .  S
C447        C448   1.195       .  T
Fe449       O465   2.050   1_565  S
Fe449       O455   2.031       .  S
Fe449       O462   2.034   1_565  S
Fe449       O454   2.032       .  S
Fe449       O460   1.976       .  S
Fe450       O453   2.108       .  S
Fe450       O457   2.068   1_565  S
Fe450       O461   2.073       .  S
Fe450       O466   2.039       .  S
Fe450       O460   1.930       .  S
Fe451       O469   2.154       .  S
Fe451       O456   2.081       .  S
Fe451       O463   2.145       .  S
Fe451       O452   2.153       .  S
Fe451       O460   1.923       .  S
O452        C459   1.294       .  A
O453        C467   1.277       .  A
O454        C459   1.274       .  A
O455        C458   1.249       .  A
O456        C468   1.277       .  A
O457        C470   1.273       .  A
C458        O463   1.277       .  A
C458        C891   1.457       .  S
C459        C893   1.444       .  S
O461        C464   1.264   1_565  A
O462        C464   1.255       .  A
O465        C470   1.270       .  A
O466        C468   1.269       .  A
C467        O469   1.286       .  A
C467        C885   1.504       .  S
C468        C887   1.420       .  S
C470        C890   1.416   1_545  S
Fe471       O487   2.036   1_565  S
Fe471       O477   2.110       .  S
Fe471       O484   2.059   1_565  S
Fe471       O476   2.018       .  S
Fe471       O482   1.940       .  S
Fe472       O475   2.035       .  S
Fe472       O479   2.084       .  S
Fe472       O483   2.042       .  S
Fe472       O488   2.129       .  S
Fe472       O482   1.957       .  S
Fe473       O491   2.093       .  S
Fe473       O478   2.112       .  S
Fe473       O485   2.060       .  S
Fe473       O474   2.150       .  S
Fe473       O482   1.949       .  S
O474        C481   1.279       .  A
O475        C489   1.259       .  A
O476        C481   1.245       .  A
O477        C480   1.282       .  A
O478        C490   1.290       .  A
O479        C492   1.273   1_565  A
C480        O485   1.274       .  A
C480        C894   1.444       .  S
C481        C881   1.450       .  S
O483        C486   1.256   1_565  A
O484        C486   1.269       .  A
C486        C879   1.425   1_545  S
O487        C492   1.258       .  A
O488        C490   1.285       .  A
C489        O491   1.272       .  A
C489        C877   1.419       .  S
C490        C876   1.477       .  S
Fe493       O509   2.057       .  S
Fe493       O506   2.048       .  S
Fe494       O497   2.150       .  S
Fe494       O510   2.028       .  S
Fe494       O504   1.963       .  S
Fe495       O513   2.131       .  S
Fe495       O500   2.097       .  S
Fe495       O507   2.154       .  S
Fe495       O496   2.064       .  S
Fe495       O504   1.953       .  S
O496        C503   1.273       .  A
O497        C511   1.288       .  A
O498        C503   1.279       .  A
O499        C502   1.246       .  A
O500        C512   1.275       .  A
O501        C514   1.258       .  A
C502        O507   1.282       .  A
C503        C871   1.443       .  S
O505        C508   1.272       .  A
O506        C508   1.260       .  A
C508        C874   1.430       .  S
O509        C514   1.270       .  A
O510        C512   1.258       .  A
C511        O513   1.291       .  A
C511        C866   1.502       .  S
C512        C868   1.416       .  S
C514        C870   1.421       .  S
Fe515       O531   2.034       .  S
Fe515       O528   2.072       .  S
Fe516       O519   2.015       .  S
Fe516       O527   2.017       .  S
Fe516       O532   2.106       .  S
Fe516       O526   1.963       .  S
Fe517       O535   2.135       .  S
Fe517       O522   2.125       .  S
Fe517       O529   2.083       .  S
Fe517       O518   2.165       .  S
Fe517       O526   1.929       .  S
O518        C525   1.293       .  A
O519        C533   1.269       .  A
O520        C525   1.257       .  A
O521        C524   1.266       .  A
O522        C534   1.278       .  A
O523        C536   1.266       .  A
C524        O529   1.271       .  A
C524        C872   1.442       .  S
O528        C530   1.271       .  A
C530        C862   1.410       .  S
O531        C536   1.251       .  A
O532        C534   1.271       .  A
C533        O535   1.290       .  A
C533        C859   1.429       .  S
C534        C857   1.486       .  S
C536        C863   1.420       .  S
Fe537       O553   2.036       .  S
Fe537       O550   2.055       .  S
Fe538       O541   2.037       .  S
Fe538       O549   2.048       .  S
Fe538       O554   2.150       .  S
Fe538       O548   1.967       .  S
Fe539       O557   2.098       .  S
Fe539       O544   2.124       .  S
Fe539       O551   2.073       .  S
Fe539       O540   2.172       .  S
Fe539       O548   1.944       .  S
O540        C547   1.286       .  A
O541        C555   1.260       .  A
O542        C547   1.245       .  A
O543        C546   1.279       .  A
O544        C556   1.293       .  A
O545        C558   1.275       .  A
C546        O551   1.273       .  A
C546        C854   1.452       .  S
O550        C552   1.269       .  A
C552        C880   1.426       .  S
O553        C558   1.259       .  A
O554        C556   1.290       .  A
C555        O557   1.274       .  A
C555        C849   1.422       .  S
C556        C848   1.495       .  S
C558        C855   1.428       .  S
Fe559       O575   2.061       .  S
Fe559       O572   2.033       .  S
Fe560       O563   2.088       .  S
Fe560       O576   2.045       .  S
Fe560       O570   1.921       .  S
Fe561       O579   2.148       .  S
Fe561       O566   2.082       .  S
Fe561       O573   2.149       .  S
Fe561       O562   2.163       .  S
Fe561       O570   1.918       .  S
O562        C569   1.298       .  A
O563        C577   1.273       .  A
O564        C569   1.276       .  A
O565        C568   1.245       .  A
O566        C578   1.276       .  A
O567        C580   1.272       .  A
C568        O573   1.274       .  A
C569        C853   1.451       .  S
O571        C574   1.264       .  A
O572        C574   1.254       .  A
C574        C845   1.417       .  S
O575        C580   1.274       .  A
O576        C578   1.270       .  A
C577        O579   1.287       .  A
C577        C840   1.489       .  S
C578        C842   1.425       .  S
C580        C889   1.416       .  S
Fe581       O597   2.053   1_565  S
Fe581       O587   2.033       .  S
Fe581       O594   2.059       .  S
Fe581       O586   2.023       .  S
Fe581       O592   1.970       .  S
Fe582       O585   2.039       .  S
Fe582       O589   2.065       .  S
Fe582       O593   2.062       .  S
Fe582       O598   2.091       .  S
Fe582       O592   1.919       .  S
Fe583       O601   2.091       .  S
Fe583       O588   2.159       .  S
Fe583       O595   2.154       .  S
Fe583       O584   2.155       .  S
Fe583       O592   1.919       .  S
O584        C591   1.276       .  A
O585        C599   1.271       .  A
O586        C591   1.243       .  A
O587        C590   1.277       .  A
O588        C600   1.288       .  A
O589        C602   1.262   1_565  A
C590        O595   1.296       .  A
C590        C835   1.442   1_556  S
C591        C852   1.456       .  S
O593        C596   1.272       .  A
O594        C596   1.269       .  A
C596        C861   1.416       .  S
O597        C602   1.259       .  A
O598        C600   1.272       .  A
C599        O601   1.279       .  A
C599        C833   1.427       .  S
C600        C831   1.495       .  S
Fe603       O619   2.055   1_565  S
Fe603       O609   2.017       .  S
Fe603       O616   2.041   1_565  S
Fe603       O608   2.107       .  S
Fe603       O614   1.943       .  S
Fe604       O607   2.135       .  S
Fe604       O611   2.043       .  S
Fe604       O615   2.079   1_565  S
Fe604       O620   2.024       .  S
Fe604       O614   1.957       .  S
Fe605       O623   2.115       .  S
Fe605       O610   2.109       .  S
Fe605       O617   2.163       .  S
Fe605       O606   2.053       .  S
Fe605       O614   1.952       .  S
O606        C613   1.270       .  A
O607        C621   1.285       .  A
O608        C613   1.280       .  A
O609        C612   1.245       .  A
O610        C622   1.277       .  A
O611        C624   1.257   1_565  A
C612        O617   1.283       .  A
C612        C843   1.453       .  S
C613        C836   1.441       .  S
O615        C618   1.272       .  A
O616        C618   1.260       .  A
O619        C624   1.268       .  A
O620        C622   1.258       .  A
C621        O623   1.288       .  A
C621        C825   1.485       .  S
C622        C827   1.422       .  S
C624        C869   1.421   1_545  S
Fe625      O1537   2.068       .  S
Fe625       O631   2.028       .  S
Fe625      O1534   2.053       .  S
Fe625       O630   2.047       .  S
Fe625       O636   1.968   1_655  S
Fe626       O629   2.091       .  S
Fe626       O633   2.064   1_455  S
Fe626       O637   2.066   1_455  S
Fe626       O642   2.039       .  S
Fe626       O636   1.928       .  S
Fe627       O645   2.140       .  S
Fe627       O632   2.092       .  S
Fe627       O639   2.136       .  S
Fe627       O628   2.140       .  S
Fe627       O636   1.923       .  S
O628        C635   1.291       .  A
O629        C643   1.273       .  A
O630        C635   1.278   1_655  A
O631        C634   1.249   1_655  A
O632        C644   1.278       .  A
O633       C1542   1.269       .  A
C634        O639   1.275       .  A
C634        C822   1.449       .  S
C635        C824   1.446       .  S
O637       C1536   1.264       .  A
O638      Fe1521   2.052       .  S
O638        C640   1.260       .  A
C640       O1533   1.264       .  A
C640        C888   1.422       .  S
O641      Fe1521   2.066       .  S
O641        C646   1.270       .  A
O642        C644   1.269       .  A
C643        O645   1.284       .  A
C643        C826   1.484       .  S
C644        C873   1.427       .  S
C646       O1529   1.269       .  A
C646        C819   1.419       .  S
Fe647      O1559   2.033       .  S
Fe647       O653   2.112   1_655  S
Fe647      O1556   2.072       .  S
Fe647       O652   2.010   1_655  S
Fe647       O658   1.943   1_655  S
Fe648       O651   2.022       .  S
Fe648       O655   2.078   1_455  S
Fe648       O659   2.001       .  S
Fe648       O664   2.127       .  S
Fe648       O658   1.926       .  S
Fe649       O667   2.101       .  S
Fe649       O654   2.139       .  S
Fe649       O661   2.058       .  S
Fe649       O650   2.153       .  S
Fe649       O658   1.953       .  S
O650        C657   1.277       .  A
O651        C665   1.258       .  A
O652        C657   1.240       .  A
O653        C656   1.283       .  A
O654        C666   1.293       .  A
O655       C1564   1.269       .  A
C656        O661   1.274       .  A
C656        C823   1.444       .  S
C657        C817   1.454       .  S
O659        C662   1.262   1_455  A
O660      Fe1543   2.072       .  S
O660       C1558   1.272       .  A
C662       O1556   1.272       .  A
C662       C1711   1.413       .  S
O663      Fe1543   2.031       .  S
O663        C668   1.256       .  A
O664        C666   1.283       .  A
C665        O667   1.275       .  A
C665        C864   1.419       .  S
C666        C832   1.495       .  S
C668       O1551   1.269       .  A
C668        C878   1.424       .  S
Fe669       O685   2.058       .  S
Fe669       O675   2.016       .  S
Fe669      O1578   2.032       .  S
Fe669       O674   2.090       .  S
Fe669       O680   1.948       .  S
Fe670       O673   2.128       .  S
Fe670       O677   2.046       .  S
Fe670       O681   2.086       .  S
Fe670       O686   2.024       .  S
Fe670       O680   1.971       .  S
Fe671       O689   2.125       .  S
Fe671       O676   2.093       .  S
Fe671       O683   2.154       .  S
Fe671       O672   2.066       .  S
Fe671       O680   1.936       .  S
O672        C679   1.270       .  A
O673        C687   1.283       .  A
O674        C679   1.274       .  A
O675        C678   1.251       .  A
O676        C688   1.276       .  A
O677        C690   1.256       .  A
C678        O683   1.286       .  A
C678        C821   1.447       .  S
C679        C813   1.443       .  S
O681       C1580   1.273       .  A
O682      Fe1565   2.032       .  S
O682        C684   1.256       .  A
C684       O1577   1.273       .  A
C684        C867   1.419       .  S
O685        C690   1.269       .  A
O686        C688   1.261       .  A
C687        O689   1.289       .  A
C687        C839   1.490       .  S
C688        C896   1.415       .  S
C690        C811   1.422       .  S
Fe691      O1603   2.036       .  S
Fe691       O697   2.073       .  S
Fe691      O1600   2.068       .  S
Fe691       O696   2.011       .  S
Fe691       O702   1.952       .  S
Fe692       O695   2.027       .  S
Fe692       O699   2.089       .  S
Fe692       O703   2.045       .  S
Fe692       O708   2.133       .  S
Fe692       O702   1.992       .  S
Fe693       O711   2.117       .  S
Fe693       O698   2.130       .  S
Fe693       O705   2.089       .  S
Fe693       O694   2.166       .  S
Fe693       O702   1.935       .  S
O694        C701   1.291       .  A
O695        C709   1.261       .  A
O696        C701   1.256       .  A
O697        C700   1.271       .  A
O698        C710   1.287       .  A
O699       C1608   1.267       .  A
C700        O705   1.275       .  A
C700        C814   1.444       .  S
C701        C818   1.454       .  S
O703        C706   1.256       .  A
O704      Fe1587   2.069       .  S
O704       C1602   1.275       .  A
C706       O1600   1.274       .  A
C706        C809   1.424       .  S
O707      Fe1587   2.035       .  S
O707        C712   1.251       .  A
O708        C710   1.282       .  A
C709        O711   1.282       .  A
C709        C884   1.421       .  S
C710        C847   1.494       .  S
C712       O1595   1.267       .  A
C712        C860   1.430       .  S
Fe713      O1625   2.033       .  S
Fe713       O719   2.068       .  S
Fe713      O1622   2.073       .  S
Fe713       O718   2.010       .  S
Fe713       O724   1.956       .  S
Fe714       O717   2.025       .  S
Fe714       O721   2.080       .  S
Fe714       O725   2.048       .  S
Fe714       O730   2.109       .  S
Fe714       O724   2.002       .  S
Fe715       O733   2.124       .  S
Fe715       O720   2.112       .  S
Fe715       O727   2.086       .  S
Fe715       O716   2.167       .  S
Fe715       O724   1.938       .  S
O716        C723   1.292       .  A
O717        C731   1.268       .  A
O718        C723   1.256       .  A
O719        C722   1.270       .  A
O720        C732   1.279       .  A
O721       C1630   1.264       .  A
C722        O727   1.272       .  A
C722        C807   1.447   1_556  S
C723        C805   1.454       .  S
O725        C728   1.258       .  A
O726      Fe1609   2.073       .  S
O726       C1624   1.275       .  A
C728       O1622   1.276       .  A
C728        C816   1.424       .  S
O729      Fe1609   2.033       .  S
O729        C734   1.249       .  A
O730        C732   1.274       .  A
C731        O733   1.287       .  A
C731        C856   1.426       .  S
C732        C875   1.477       .  S
C734       O1617   1.264       .  A
C734        C834   1.427       .  S
Fe735       O751   2.064       .  S
Fe735       O741   2.016       .  S
Fe735      O1644   2.034       .  S
Fe735       O740   2.090       .  S
Fe735       O746   1.941       .  S
Fe736       O739   2.138       .  S
Fe736       O743   2.043       .  S
Fe736       O747   2.090       .  S
Fe736       O752   2.026       .  S
Fe736       O746   1.966       .  S
Fe737       O755   2.146       .  S
Fe737       O742   2.098       .  S
Fe737       O749   2.176       .  S
Fe737       O738   2.079       .  S
Fe737       O746   1.936       .  S
O738        C745   1.273       .  A
O739        C753   1.286       .  A
O740        C745   1.274       .  A
O741        C744   1.250       .  A
O742        C754   1.276       .  A
O743        C756   1.256       .  A
C744        O749   1.289       .  A
C744        C804   1.461       .  S
C745        C808   1.446       .  S
O747       C1646   1.272       .  A
O748      Fe1631   2.033       .  S
O748        C750   1.254       .  A
C750       O1643   1.273       .  A
C750        C828   1.423       .  S
O751        C756   1.272       .  A
O752        C754   1.259       .  A
C753        O755   1.296       .  A
C753        C886   1.504       .  S
C754        C846   1.414       .  S
C756        C820   1.420       .  S
Fe757      O1669   2.035       .  S
Fe757       O763   2.134   1_655  S
Fe757      O1666   2.071       .  S
Fe757       O762   2.008   1_655  S
Fe757       O768   1.933   1_655  S
Fe758       O761   2.032       .  S
Fe758       O765   2.074   1_455  S
Fe758       O769   2.009       .  S
Fe758       O774   2.119       .  S
Fe758       O768   1.922       .  S
Fe759       O777   2.102       .  S
Fe759       O764   2.131       .  S
Fe759       O771   2.058       .  S
Fe759       O760   2.156       .  S
Fe759       O768   1.958       .  S
O760        C767   1.272       .  A
O761        C775   1.257       .  A
O762        C767   1.234       .  A
O763        C766   1.291       .  A
O764        C776   1.294       .  A
O765       C1674   1.269       .  A
C766        O771   1.277       .  A
C766        C801   1.452       .  S
C767        C806   1.458       .  S
O769        C772   1.262   1_455  A
O770      Fe1653   2.072       .  S
O770       C1668   1.272       .  A
C772       O1666   1.272       .  A
C772       C1706   1.413       .  S
O773      Fe1653   2.034       .  S
O773        C778   1.257       .  A
O774        C776   1.282       .  A
C775        O777   1.273       .  A
C775        C837   1.425       .  S
C776        C858   1.484       .  S
C778       O1661   1.269       .  A
C778        C850   1.425       .  S
Fe779      O1691   2.071       .  S
Fe779       O785   2.031   1_655  S
Fe779      O1688   2.059       .  S
Fe779       O784   2.046       .  S
Fe779       O790   1.972   1_655  S
Fe780       O783   2.105       .  S
Fe780       O787   2.067   1_455  S
Fe780       O791   2.066   1_455  S
Fe780       O796   2.039       .  S
Fe780       O790   1.927       .  S
Fe781       O799   2.156       .  S
Fe781       O786   2.091       .  S
Fe781       O793   2.153       .  S
Fe781       O782   2.161       .  S
Fe781       O790   1.920       .  S
O782        C789   1.297       .  A
O783        C797   1.277       .  A
O784        C789   1.278   1_655  A
O785        C788   1.246       .  A
O786        C798   1.278       .  A
O787       C1696   1.269       .  A
C788        O793   1.276       .  A
C788        C803   1.461       .  S
C789        C802   1.454       .  S
O791       C1690   1.263       .  A
O792      Fe1675   2.058       .  S
O792        C794   1.260       .  A
C794       O1687   1.263       .  A
C794        C841   1.426       .  S
O795      Fe1675   2.072       .  S
O795        C800   1.273       .  A
O796        C798   1.269       .  A
C797        O799   1.288       .  A
C797        C865   1.501       .  S
C798        C830   1.426       .  S
C800       O1683   1.269       .  A
C800        C812   1.418       .  S
C801        C802   1.218   1_556  T
C803       C1700   1.224   1_455  T
C804       C1699   1.224       .  T
C805       C1702   1.221       .  T
C806       C1701   1.222       .  T
C807        C808   1.213       .  T
C809        C810   1.199       .  T
C810       C1668   1.413       .  S
C811        C812   1.198       .  T
C813        C814   1.211       .  T
C815       C1558   1.413       .  S
C815        C816   1.199       .  T
C817       C1714   1.220       .  T
C818       C1713   1.221       .  T
C819        C820   1.198       .  T
C821       C1718   1.217       .  T
C822       C1717   1.217   1_455  T
C823        C824   1.213       .  T
C825        C826   1.235       .  T
C827        C828   1.199       .  T
C829        C830   1.200       .  T
C831        C832   1.243       .  T
C833        C834   1.201       .  T
C835        C836   1.211       .  T
C837        C838   1.201       .  T
C839        C840   1.237       .  T
C841        C842   1.201       .  T
C843        C844   1.220       .  T
C845        C846   1.194       .  T
C847        C848   1.242       .  T
C849        C850   1.199       .  T
C851        C852   1.221       .  T
C853        C854   1.215   1_554  T
C855        C856   1.202       .  T
C857        C858   1.235       .  T
C859        C860   1.203       .  T
C861        C862   1.193       .  T
C863        C864   1.196       .  T
C865        C866   1.245       .  T
C867        C868   1.195       .  T
C869        C870   1.198       .  T
C871        C872   1.212       .  T
C873        C874   1.202       .  T
C875        C876   1.231       .  T
C877        C878   1.198       .  T
C879        C880   1.200       .  T
C881        C882   1.217       .  T
C883        C884   1.199       .  T
C885        C886   1.245       .  T
C887        C888   1.198       .  T
C889        C890   1.196       .  T
C891        C892   1.221       .  T
C893        C894   1.215       .  T
C895        C896   1.194       .  T
Fe897       O913   2.046       .  S
Fe897       O903   2.028       .  S
Fe897       O910   2.035       .  S
Fe897       O902   2.032       .  S
Fe897       O908   1.968       .  S
Fe898       O901   2.095       .  S
Fe898       O905   2.076       .  S
Fe898       O909   2.067       .  S
Fe898       O914   2.041       .  S
Fe898       O908   1.922       .  S
Fe899       O917   2.149       .  S
Fe899       O904   2.082       .  S
Fe899       O911   2.141       .  S
Fe899       O900   2.154       .  S
Fe899       O908   1.922       .  S
O900        C907   1.296       .  A
O901        C915   1.273       .  A
O902        C907   1.276       .  A
O903        C906   1.246       .  A
O904        C916   1.277       .  A
O905        C918   1.276       .  A
C906        O911   1.273       .  A
C906       C1339   1.454       .  S
C907       C1341   1.443       .  S
O909        C912   1.261       .  A
O910        C912   1.254       .  A
C912       C1791   1.416       .  S
O913        C918   1.273       .  A
O914        C916   1.269       .  A
C915        O917   1.285       .  A
C915       C1333   1.494       .  S
C916       C1335   1.422       .  S
C918       C1338   1.416       .  S
Fe919       O935   2.030       .  S
Fe919       O925   2.113       .  S
Fe919       O932   2.052       .  S
Fe919       O924   2.016       .  S
Fe919       O930   1.950       .  S
Fe920       O923   2.036       .  S
Fe920       O927   2.088       .  S
Fe920       O931   2.042       .  S
Fe920       O936   2.140       .  S
Fe920       O930   1.956       .  S
Fe921       O939   2.089       .  S
Fe921       O926   2.119       .  S
Fe921       O933   2.059       .  S
Fe921       O922   2.157       .  S
Fe921       O930   1.958       .  S
O922        C929   1.277       .  A
O923        C937   1.257       .  A
O924        C929   1.241       .  A
O925        C928   1.284       .  A
O926        C938   1.294       .  A
O927        C940   1.276       .  A
C928        O933   1.275       .  A
C928       C1342   1.443       .  S
C929       C1329   1.458       .  S
O931        C934   1.255       .  A
O932        C934   1.265       .  A
C934       C1327   1.425       .  S
O935        C940   1.259       .  A
O936        C938   1.289       .  A
C937        O939   1.269       .  A
C937       C1325   1.421       .  S
C938       C1324   1.485       .  S
C940       C1779   1.425       .  S
Fe941       O957   2.052       .  S
Fe941      O1395   2.017       .  S
Fe941       O954   2.044       .  S
Fe941      O1394   2.105       .  S
Fe941      O1400   1.952       .  S
Fe942       O945   2.147   1_565  S
Fe942      O1397   2.042       .  S
Fe942      O1401   2.082       .  S
Fe942       O958   2.025   1_565  S
Fe942       O952   1.967   1_565  S
Fe943       O961   2.136       .  S
Fe943       O948   2.101       .  S
Fe943       O955   2.160       .  S
Fe943       O944   2.069       .  S
Fe943       O952   1.948       .  S
O944        C951   1.273       .  A
O945        C959   1.287       .  A
O946      Fe1389   2.099       .  S
O946        C951   1.277   1_565  A
O947      Fe1389   2.019       .  S
O947        C950   1.249       .  A
O948        C960   1.277       .  A
O949      Fe1390   2.046       .  S
O949        C962   1.257       .  A
C950        O955   1.285   1_565  A
C950       C1788   1.455       .  S
C951       C1319   1.443       .  S
O952      Fe1389   1.948   1_545  S
O953      Fe1390   2.084       .  S
O953        C956   1.273       .  A
O954        C956   1.262       .  A
C956       C1322   1.427       .  S
O957        C962   1.267       .  A
O958        C960   1.258       .  A
C959        O961   1.291       .  A
C959       C1314   1.504       .  S
C960       C1316   1.415       .  S
C962       C1318   1.421       .  S
Fe963       O979   2.030       .  S
Fe963      O1417   2.062       .  S
Fe963       O976   2.074       .  S
Fe963      O1416   2.014       .  S
Fe963      O1422   1.953       .  S
Fe964       O967   2.016   1_565  S
Fe964      O1419   2.081       .  S
Fe964       O975   2.018       .  S
Fe964       O980   2.114   1_565  S
Fe964       O974   1.959   1_565  S
Fe965       O983   2.121       .  S
Fe965       O970   2.115       .  S
Fe965       O977   2.077       .  S
Fe965       O966   2.152       .  S
Fe965       O974   1.936       .  S
O966        C973   1.291   1_545  A
O967        C981   1.269       .  A
O968      Fe1411   2.014       .  S
O968        C973   1.258       .  A
O969      Fe1411   2.059       .  S
O969        C972   1.265   1_565  A
O970        C982   1.275       .  A
O971      Fe1412   2.086       .  S
O971        C984   1.267       .  A
C972        O977   1.269       .  A
C972       C1320   1.441       .  S
C973       C1778   1.449       .  S
O974      Fe1411   1.957   1_545  S
O975       C1426   1.268       .  A
O976        C978   1.272       .  A
C978       O1423   1.266       .  A
C978       C1310   1.411       .  S
O979        C984   1.250       .  A
O980        C982   1.273       .  A
C981        O983   1.287       .  A
C981       C1307   1.424       .  S
C982       C1305   1.487       .  S
C984       C1311   1.421       .  S
Fe985      O1001   2.030       .  S
Fe985      O1439   2.100       .  S
Fe985       O998   2.057       .  S
Fe985      O1438   2.013       .  S
Fe985      O1444   1.946       .  S
Fe986       O989   2.039       .  S
Fe986      O1441   2.090   1_545  S
Fe986       O997   2.046   1_545  S
Fe986      O1002   2.137       .  S
Fe986       O996   1.955       .  S
Fe987      O1005   2.099       .  S
Fe987       O992   2.125       .  S
Fe987       O999   2.068       .  S
Fe987       O988   2.169       .  S
Fe987       O996   1.954       .  S
O988        C995   1.281   1_545  A
O989       C1003   1.261       .  A
O990      Fe1433   2.012       .  S
O990        C995   1.239       .  A
O991      Fe1433   2.116       .  S
O991        C994   1.283   1_565  A
O992       C1004   1.294       .  A
O993      Fe1434   2.101       .  S
O993       C1006   1.276       .  A
C994        O999   1.274       .  A
C994       C1302   1.452       .  S
C995       C1747   1.454       .  S
O996      Fe1433   1.941   1_545  S
O997       C1448   1.256       .  A
O998       C1000   1.269       .  A
C1000      O1445   1.255       .  A
C1000      C1328   1.424       .  S
O1001      C1006   1.255       .  A
O1002      C1004   1.287       .  A
C1003      O1005   1.274       .  A
C1003      C1297   1.425       .  S
C1004      C1296   1.489       .  S
C1006      C1303   1.428       .  S
Fe1007     O1023   2.058       .  S
Fe1007     O1461   2.026       .  S
Fe1007     O1020   2.039       .  S
Fe1007     O1460   2.034       .  S
Fe1007     O1466   1.969       .  S
Fe1008     O1011   2.092   1_565  S
Fe1008     O1463   2.068       .  S
Fe1008     O1467   2.068       .  S
Fe1008     O1024   2.040   1_565  S
Fe1008     O1018   1.921   1_565  S
Fe1009     O1027   2.144       .  S
Fe1009     O1014   2.086       .  S
Fe1009     O1021   2.149       .  S
Fe1009     O1010   2.161       .  S
Fe1009     O1018   1.921       .  S
O1010      C1017   1.297       .  A
O1011      C1025   1.273       .  A
O1012     Fe1455   2.039       .  S
O1012      C1017   1.278   1_565  A
O1013     Fe1455   2.022       .  S
O1013      C1016   1.242   1_565  A
O1014      C1026   1.278       .  A
O1015     Fe1456   2.067       .  S
O1015      C1028   1.272       .  A
C1016      O1021   1.272       .  A
C1016      C1740   1.455   1_545  S
C1017      C1301   1.452       .  S
O1018     Fe1455   1.964   1_545  S
O1019     Fe1456   2.068       .  S
O1019      C1022   1.263       .  A
O1020      C1022   1.256       .  A
C1022      C1293   1.418       .  S
O1023      C1028   1.273       .  A
O1024      C1026   1.269       .  A
C1025      O1027   1.285       .  A
C1025      C1288   1.488       .  S
C1026      C1290   1.424       .  S
C1028      C1337   1.418       .  S
Fe1029     O1045   2.053       .  S
Fe1029     O1035   2.034       .  S
Fe1029     O1042   2.057       .  S
Fe1029     O1034   2.026       .  S
Fe1029     O1040   1.963       .  S
Fe1030     O1033   2.041       .  S
Fe1030     O1037   2.069       .  S
Fe1030     O1041   2.062       .  S
Fe1030     O1046   2.095       .  S
Fe1030     O1040   1.922       .  S
Fe1031     O1049   2.091       .  S
Fe1031     O1036   2.135       .  S
Fe1031     O1043   2.140       .  S
Fe1031     O1032   2.148       .  S
Fe1031     O1040   1.920       .  S
O1032      C1039   1.275       .  A
O1033      C1047   1.270       .  A
O1034      C1039   1.245       .  A
O1035      C1038   1.277       .  A
O1036      C1048   1.282       .  A
O1037      C1050   1.263       .  A
C1038      O1043   1.292       .  A
C1038      C1283   1.438   1_556  S
C1039      C1300   1.456       .  S
O1041      C1044   1.271       .  A
O1042      C1044   1.270       .  A
C1044      C1309   1.415       .  S
O1045      C1050   1.259       .  A
O1046      C1048   1.274       .  A
C1047      O1049   1.278       .  A
C1047      C1281   1.428       .  S
C1048      C1279   1.484       .  S
C1050      C1734   1.426       .  S
Fe1051     O1067   2.059       .  S
Fe1051     O1057   2.015       .  S
Fe1051     O1064   2.042       .  S
Fe1051     O1056   2.097       .  S
Fe1051     O1062   1.941       .  S
Fe1052     O1055   2.131       .  S
Fe1052     O1059   2.045       .  S
Fe1052     O1063   2.077       .  S
Fe1052     O1068   2.024       .  S
Fe1052     O1062   1.965       .  S
Fe1053     O1071   2.118       .  S
Fe1053     O1058   2.103       .  S
Fe1053     O1065   2.166       .  S
Fe1053     O1054   2.054       .  S
Fe1053     O1062   1.945       .  S
O1054      C1061   1.268       .  A
O1055      C1069   1.284       .  A
O1056      C1061   1.277       .  A
O1057      C1060   1.248       .  A
O1058      C1070   1.277       .  A
O1059      C1072   1.258       .  A
C1060      O1065   1.286       .  A
C1060      C1291   1.454       .  S
C1061      C1284   1.437       .  S
O1063      C1066   1.270       .  A
O1064      C1066   1.258       .  A
C1066      C1725   1.424       .  S
O1067      C1072   1.270       .  A
O1068      C1070   1.259       .  A
C1069      O1071   1.288       .  A
C1069      C1273   1.486       .  S
C1070      C1275   1.417       .  S
C1072      C1317   1.420       .  S
Fe1073     O1079   2.029       .  S
Fe1073     O1078   2.043       .  S
Fe1073     O1084   1.974       .  S
Fe1074     O1077   2.098       .  S
Fe1074     O1081   2.068       .  S
Fe1074     O1085   2.069       .  S
Fe1074     O1090   2.040       .  S
Fe1074     O1084   1.930       .  S
Fe1075     O1093   2.136       .  S
Fe1075     O1080   2.090       .  S
Fe1075     O1087   2.141       .  S
Fe1075     O1076   2.146       .  S
Fe1075     O1084   1.925       .  S
O1076      C1083   1.293       .  A
O1077      C1091   1.275       .  A
O1078      C1083   1.277       .  A
O1079      C1082   1.248       .  A
O1080      C1092   1.278       .  A
C1082      O1087   1.274       .  A
C1082      C1270   1.452       .  S
C1083      C1272   1.447       .  S
O1086      C1088   1.259       .  A
C1088      C1336   1.425       .  S
O1089      C1094   1.269       .  A
O1090      C1092   1.270       .  A
C1091      O1093   1.282       .  A
C1091      C1274   1.486       .  S
C1092      C1321   1.426       .  S
C1094      C1267   1.418       .  S
Fe1095     O1101   2.118       .  S
Fe1095     O1100   2.010       .  S
Fe1095     O1106   1.936       .  S
Fe1096     O1099   2.019       .  S
Fe1096     O1103   2.072       .  S
Fe1096     O1107   2.002       .  S
Fe1096     O1112   2.109       .  S
Fe1096     O1106   1.923       .  S
Fe1097     O1115   2.109       .  S
Fe1097     O1102   2.133       .  S
Fe1097     O1109   2.054       .  S
Fe1097     O1098   2.154       .  S
Fe1097     O1106   1.949       .  S
O1098      C1105   1.278       .  A
O1099      C1113   1.259       .  A
O1100      C1105   1.240       .  A
O1101      C1104   1.284       .  A
O1102      C1114   1.290       .  A
C1104      O1109   1.272       .  A
C1104      C1271   1.446       .  S
C1105      C1265   1.451       .  S
O1107      C1110   1.263       .  A
O1111      C1116   1.256       .  A
O1112      C1114   1.277       .  A
C1113      O1115   1.278       .  A
C1113      C1312   1.419       .  S
C1114      C1280   1.483       .  S
C1116      C1326   1.425       .  S
Fe1117     O1133   2.059       .  S
Fe1117     O1123   2.019   1_455  S
Fe1117     O1122   2.094   1_455  S
Fe1117     O1128   1.942   1_455  S
Fe1118     O1121   2.129       .  S
Fe1118     O1125   2.042       .  S
Fe1118     O1129   2.088   1_655  S
Fe1118     O1134   2.025       .  S
Fe1118     O1128   1.966       .  S
Fe1119     O1137   2.124       .  S
Fe1119     O1124   2.098       .  S
Fe1119     O1131   2.156       .  S
Fe1119     O1120   2.063       .  S
Fe1119     O1128   1.935       .  S
O1120      C1127   1.270       .  A
O1121      C1135   1.283       .  A
O1122      C1127   1.276       .  A
O1123      C1126   1.251       .  A
O1124      C1136   1.277       .  A
O1125      C1138   1.257   1_655  A
C1126      O1131   1.285       .  A
C1126      C1269   1.451       .  S
C1127      C1261   1.443       .  S
O1130      C1132   1.255       .  A
C1132      C1315   1.419       .  S
O1133      C1138   1.270       .  A
O1134      C1136   1.260       .  A
C1135      O1137   1.288       .  A
C1135      C1287   1.488       .  S
C1136      C1344   1.416       .  S
C1138      C1259   1.421   1_455  S
Fe1139     O1145   2.059       .  S
Fe1139     O1144   2.006       .  S
Fe1139     O1150   1.958   1_455  S
Fe1140     O1143   2.022       .  S
Fe1140     O1147   2.080   1_655  S
Fe1140     O1151   2.047   1_655  S
Fe1140     O1156   2.115       .  S
Fe1140     O1150   2.000       .  S
Fe1141     O1159   2.120       .  S
Fe1141     O1146   2.129       .  S
Fe1141     O1153   2.096       .  S
Fe1141     O1142   2.164       .  S
Fe1141     O1150   1.934       .  S
O1142      C1149   1.293   1_655  A
O1143      C1157   1.266       .  A
O1144      C1149   1.256       .  A
O1145      C1148   1.266   1_455  A
O1146      C1158   1.283       .  A
C1148      O1153   1.274       .  A
C1148      C1262   1.445       .  S
C1149      C1266   1.450       .  S
O1151      C1154   1.257       .  A
C1154      C1257   1.426       .  S
O1155      C1160   1.249       .  A
O1156      C1158   1.276       .  A
C1157      O1159   1.286       .  A
C1157      C1332   1.423       .  S
C1158      C1295   1.489       .  S
C1160      C1308   1.423       .  S
Fe1161     O1167   2.065       .  S
Fe1161     O1166   2.004       .  S
Fe1161     O1172   1.949   1_455  S
Fe1162     O1165   2.016       .  S
Fe1162     O1169   2.080   1_655  S
Fe1162     O1173   2.041   1_655  S
Fe1162     O1178   2.116       .  S
Fe1162     O1172   1.996       .  S
Fe1163     O1181   2.132       .  S
Fe1163     O1168   2.119       .  S
Fe1163     O1175   2.082       .  S
Fe1163     O1164   2.170       .  S
Fe1163     O1172   1.932       .  S
O1164      C1171   1.294   1_655  A
O1165      C1179   1.266       .  A
O1166      C1171   1.255       .  A
O1167      C1170   1.269   1_455  A
O1168      C1180   1.280       .  A
C1170      O1175   1.271       .  A
C1170      C1255   1.440   1_556  S
C1171      C1253   1.454       .  S
O1173      C1176   1.260       .  A
C1176      C1264   1.426       .  S
O1177      C1182   1.249       .  A
O1178      C1180   1.275       .  A
C1179      O1181   1.290       .  A
C1179      C1304   1.422       .  S
C1180      C1323   1.485       .  S
C1182      C1282   1.426       .  S
Fe1183     O1199   2.060       .  S
Fe1183     O1189   2.016   1_455  S
Fe1183     O1188   2.087   1_455  S
Fe1183     O1194   1.941   1_455  S
Fe1184     O1187   2.134       .  S
Fe1184     O1191   2.041       .  S
Fe1184     O1195   2.087   1_655  S
Fe1184     O1200   2.024       .  S
Fe1184     O1194   1.965       .  S
Fe1185     O1203   2.131       .  S
Fe1185     O1190   2.100       .  S
Fe1185     O1197   2.166       .  S
Fe1185     O1186   2.070       .  S
Fe1185     O1194   1.934       .  S
O1186      C1193   1.271       .  A
O1187      C1201   1.284       .  A
O1188      C1193   1.273       .  A
O1189      C1192   1.251       .  A
O1190      C1202   1.277       .  A
O1191      C1204   1.256   1_655  A
C1192      O1197   1.288       .  A
C1192      C1252   1.455       .  S
C1193      C1256   1.440       .  S
O1196      C1198   1.255       .  A
C1198      C1276   1.420       .  S
O1199      C1204   1.270       .  A
O1200      C1202   1.260       .  A
C1201      O1203   1.291       .  A
C1201      C1334   1.495       .  S
C1202      C1294   1.417       .  S
C1204      C1268   1.417   1_455  S
Fe1205     O1211   2.130       .  S
Fe1205     O1210   2.005       .  S
Fe1205     O1216   1.932       .  S
Fe1206     O1209   2.032       .  S
Fe1206     O1213   2.074       .  S
Fe1206     O1217   2.012       .  S
Fe1206     O1222   2.107       .  S
Fe1206     O1216   1.922       .  S
Fe1207     O1225   2.100       .  S
Fe1207     O1212   2.140       .  S
Fe1207     O1219   2.059       .  S
Fe1207     O1208   2.162       .  S
Fe1207     O1216   1.959       .  S
O1208      C1215   1.273       .  A
O1209      C1223   1.259       .  A
O1210      C1215   1.232       .  A
O1211      C1214   1.290       .  A
O1212      C1224   1.296       .  A
C1214      O1219   1.277       .  A
C1214      C1249   1.450       .  S
C1215      C1254   1.457       .  S
O1217      C1220   1.263       .  A
O1221      C1226   1.259       .  A
O1222      C1224   1.279       .  A
C1223      O1225   1.274       .  A
C1223      C1285   1.422       .  S
C1224      C1306   1.483       .  S
C1226      C1298   1.428       .  S
Fe1227     O1233   2.031       .  S
Fe1227     O1232   2.046       .  S
Fe1227     O1238   1.974       .  S
Fe1228     O1231   2.113       .  S
Fe1228     O1235   2.066       .  S
Fe1228     O1239   2.069       .  S
Fe1228     O1244   2.038       .  S
Fe1228     O1238   1.930       .  S
Fe1229     O1247   2.153       .  S
Fe1229     O1234   2.089       .  S
Fe1229     O1241   2.147       .  S
Fe1229     O1230   2.153       .  S
Fe1229     O1238   1.922       .  S
O1230      C1237   1.295       .  A
O1231      C1245   1.278       .  A
O1232      C1237   1.277       .  A
O1233      C1236   1.248       .  A
O1234      C1246   1.278       .  A
C1236      O1241   1.276       .  A
C1236      C1251   1.457       .  S
C1237      C1250   1.451       .  S
O1240      C1242   1.259       .  A
C1242      C1289   1.425       .  S
O1243      C1248   1.271       .  A
O1244      C1246   1.269       .  A
C1245      O1247   1.286       .  A
C1245      C1313   1.504       .  S
C1246      C1278   1.425       .  S
C1248      C1260   1.417       .  S
C1249      C1250   1.216   1_556  T
C1255      C1256   1.209       .  T
C1257      C1258   1.202       .  T
C1259      C1260   1.198       .  T
C1261      C1262   1.211       .  T
C1263      C1264   1.200   1_655  T
C1267      C1268   1.197       .  T
C1271      C1272   1.214       .  T
C1273      C1274   1.236       .  T
C1275      C1276   1.196       .  T
C1277      C1514   1.425       .  S
C1277      C1278   1.200       .  T
C1279      C1280   1.236       .  T
C1281      C1282   1.201       .  T
C1283      C1284   1.208       .  T
C1285      C1286   1.199       .  T
C1286      C1498   1.425       .  S
C1287      C1288   1.236       .  T
C1289      C1290   1.199       .  T
C1291      C1292   1.221       .  T
C1292      C1464   1.457       .  S
C1293      C1294   1.195       .  T
C1295      C1296   1.238       .  T
C1297      C1298   1.201       .  T
C1299      C1443   1.455       .  S
C1299      C1300   1.221       .  T
C1301      C1302   1.215   1_554  T
C1303      C1304   1.201       .  T
C1305      C1306   1.235       .  T
C1307      C1308   1.199       .  T
C1309      C1310   1.193       .  T
C1311      C1312   1.197       .  T
C1313      C1314   1.247       .  T
C1315      C1316   1.195       .  T
C1317      C1318   1.197       .  T
C1319      C1320   1.212       .  T
C1321      C1322   1.201       .  T
C1323      C1324   1.235       .  T
C1325      C1326   1.199       .  T
C1327      C1328   1.199       .  T
C1329      C1330   1.222       .  T
C1330      C1421   1.455       .  S
C1331      C1388   1.427       .  S
C1331      C1332   1.200       .  T
C1333      C1334   1.239       .  T
C1335      C1336   1.199       .  T
C1337      C1338   1.197       .  T
C1339      C1340   1.219       .  T
C1340      C1398   1.452       .  S
C1341      C1342   1.214       .  T
C1343      C1360   1.418       .  S
C1343      C1344   1.194       .  T
Fe1345     O1361   2.049   1_565  S
Fe1345     O1351   2.030       .  S
Fe1345     O1358   2.033   1_565  S
Fe1345     O1350   2.030       .  S
Fe1345     O1356   1.976       .  S
Fe1346     O1349   2.111       .  S
Fe1346     O1353   2.069   1_565  S
Fe1346     O1357   2.074       .  S
Fe1346     O1362   2.039       .  S
Fe1346     O1356   1.928       .  S
Fe1347     O1365   2.155       .  S
Fe1347     O1352   2.083       .  S
Fe1347     O1359   2.147       .  S
Fe1347     O1348   2.153       .  S
Fe1347     O1356   1.922       .  S
O1348      C1355   1.294       .  A
O1349      C1363   1.277       .  A
O1350      C1355   1.274       .  A
O1351      C1354   1.248       .  A
O1352      C1364   1.277       .  A
O1353      C1366   1.273       .  A
C1354      O1359   1.277       .  A
C1354      C1787   1.457       .  S
C1355      C1789   1.444       .  S
O1357      C1360   1.264   1_565  A
O1358      C1360   1.254       .  A
O1361      C1366   1.270       .  A
O1362      C1364   1.269       .  A
C1363      O1365   1.286       .  A
C1363      C1781   1.506       .  S
C1364      C1783   1.421       .  S
C1366      C1786   1.416   1_545  S
Fe1367     O1383   2.036   1_565  S
Fe1367     O1373   2.110       .  S
Fe1367     O1380   2.059   1_565  S
Fe1367     O1372   2.018       .  S
Fe1367     O1378   1.939       .  S
Fe1368     O1371   2.037       .  S
Fe1368     O1375   2.085       .  S
Fe1368     O1379   2.043       .  S
Fe1368     O1384   2.130       .  S
Fe1368     O1378   1.957       .  S
Fe1369     O1387   2.092       .  S
Fe1369     O1374   2.115       .  S
Fe1369     O1381   2.061       .  S
Fe1369     O1370   2.151       .  S
Fe1369     O1378   1.948       .  S
O1370      C1377   1.279       .  A
O1371      C1385   1.259       .  A
O1372      C1377   1.245       .  A
O1373      C1376   1.282       .  A
O1374      C1386   1.290       .  A
O1375      C1388   1.274   1_565  A
C1376      O1381   1.274       .  A
C1376      C1790   1.443       .  S
C1377      C1777   1.451       .  S
O1379      C1382   1.256   1_565  A
O1380      C1382   1.269       .  A
C1382      C1775   1.425   1_545  S
O1383      C1388   1.258       .  A
O1384      C1386   1.285       .  A
C1385      O1387   1.272       .  A
C1385      C1773   1.419       .  S
C1386      C1772   1.480       .  S
Fe1389     O1405   2.057       .  S
Fe1389     O1402   2.048       .  S
Fe1390     O1393   2.149       .  S
Fe1390     O1406   2.028       .  S
Fe1390     O1400   1.964       .  S
Fe1391     O1409   2.133       .  S
Fe1391     O1396   2.095       .  S
Fe1391     O1403   2.154       .  S
Fe1391     O1392   2.065       .  S
Fe1391     O1400   1.955       .  S
O1392      C1399   1.273       .  A
O1393      C1407   1.288       .  A
O1394      C1399   1.279       .  A
O1395      C1398   1.245       .  A
O1396      C1408   1.274       .  A
O1397      C1410   1.258       .  A
C1398      O1403   1.281       .  A
C1399      C1767   1.444       .  S
O1401      C1404   1.271       .  A
O1402      C1404   1.260       .  A
C1404      C1770   1.429       .  S
O1405      C1410   1.269       .  A
O1406      C1408   1.258       .  A
C1407      O1409   1.291       .  A
C1407      C1762   1.503       .  S
C1408      C1764   1.416       .  S
C1410      C1766   1.421       .  S
Fe1411     O1427   2.032       .  S
Fe1411     O1424   2.073       .  S
Fe1412     O1415   2.016       .  S
Fe1412     O1423   2.018       .  S
Fe1412     O1428   2.113       .  S
Fe1412     O1422   1.964       .  S
Fe1413     O1431   2.134       .  S
Fe1413     O1418   2.121       .  S
Fe1413     O1425   2.082       .  S
Fe1413     O1414   2.165       .  S
Fe1413     O1422   1.929       .  S
O1414      C1421   1.293       .  A
O1415      C1429   1.268       .  A
O1416      C1421   1.258       .  A
O1417      C1420   1.266       .  A
O1418      C1430   1.278       .  A
O1419      C1432   1.267       .  A
C1420      O1425   1.270       .  A
C1420      C1768   1.443       .  S
O1424      C1426   1.271       .  A
C1426      C1758   1.409       .  S
O1427      C1432   1.251       .  A
O1428      C1430   1.273       .  A
C1429      O1431   1.290       .  A
C1429      C1755   1.429       .  S
C1430      C1753   1.487       .  S
C1432      C1759   1.420       .  S
Fe1433     O1449   2.036       .  S
Fe1433     O1446   2.055       .  S
Fe1434     O1437   2.037       .  S
Fe1434     O1445   2.050       .  S
Fe1434     O1450   2.149       .  S
Fe1434     O1444   1.969       .  S
Fe1435     O1453   2.098       .  S
Fe1435     O1440   2.126       .  S
Fe1435     O1447   2.072       .  S
Fe1435     O1436   2.173       .  S
Fe1435     O1444   1.945       .  S
O1436      C1443   1.286       .  A
O1437      C1451   1.260       .  A
O1438      C1443   1.246       .  A
O1439      C1442   1.278       .  A
O1440      C1452   1.294       .  A
O1441      C1454   1.275       .  A
C1442      O1447   1.272       .  A
C1442      C1750   1.449       .  S
O1446      C1448   1.268       .  A
C1448      C1776   1.425       .  S
O1449      C1454   1.260       .  A
O1450      C1452   1.289       .  A
C1451      O1453   1.274       .  A
C1451      C1745   1.423       .  S
C1452      C1744   1.496       .  S
C1454      C1751   1.428       .  S
Fe1455     O1471   2.060       .  S
Fe1455     O1468   2.036       .  S
Fe1456     O1459   2.086       .  S
Fe1456     O1472   2.046       .  S
Fe1456     O1466   1.921       .  S
Fe1457     O1475   2.148       .  S
Fe1457     O1462   2.083       .  S
Fe1457     O1469   2.150       .  S
Fe1457     O1458   2.160       .  S
Fe1457     O1466   1.917       .  S
O1458      C1465   1.297       .  A
O1459      C1473   1.272       .  A
O1460      C1465   1.276       .  A
O1461      C1464   1.245       .  A
O1462      C1474   1.277       .  A
O1463      C1476   1.272       .  A
C1464      O1469   1.274       .  A
C1465      C1749   1.449       .  S
O1467      C1470   1.263       .  A
O1468      C1470   1.255       .  A
C1470      C1741   1.418       .  S
O1471      C1476   1.274       .  A
O1472      C1474   1.270       .  A
C1473      O1475   1.286       .  A
C1473      C1736   1.488       .  S
C1474      C1738   1.425       .  S
C1476      C1785   1.416       .  S
Fe1477     O1493   2.051   1_565  S
Fe1477     O1483   2.030       .  S
Fe1477     O1490   2.057       .  S
Fe1477     O1482   2.023       .  S
Fe1477     O1488   1.972       .  S
Fe1478     O1481   2.040       .  S
Fe1478     O1485   2.068       .  S
Fe1478     O1489   2.062       .  S
Fe1478     O1494   2.094       .  S
Fe1478     O1488   1.919       .  S
Fe1479     O1497   2.090       .  S
Fe1479     O1484   2.160       .  S
Fe1479     O1491   2.153       .  S
Fe1479     O1480   2.154       .  S
Fe1479     O1488   1.919       .  S
O1480      C1487   1.276       .  A
O1481      C1495   1.271       .  A
O1482      C1487   1.243       .  A
O1483      C1486   1.276       .  A
O1484      C1496   1.288       .  A
O1485      C1498   1.263   1_565  A
C1486      O1491   1.295       .  A
C1486      C1731   1.440   1_556  S
C1487      C1748   1.456       .  S
O1489      C1492   1.272       .  A
O1490      C1492   1.268       .  A
C1492      C1757   1.416       .  S
O1493      C1498   1.259       .  A
O1494      C1496   1.273       .  A
C1495      O1497   1.279       .  A
C1495      C1729   1.426       .  S
C1496      C1727   1.497       .  S
Fe1499     O1515   2.055   1_565  S
Fe1499     O1505   2.016       .  S
Fe1499     O1512   2.042   1_565  S
Fe1499     O1504   2.106       .  S
Fe1499     O1510   1.944       .  S
Fe1500     O1503   2.133       .  S
Fe1500     O1507   2.044       .  S
Fe1500     O1511   2.079   1_565  S
Fe1500     O1516   2.024       .  S
Fe1500     O1510   1.959       .  S
Fe1501     O1519   2.114       .  S
Fe1501     O1506   2.109       .  S
Fe1501     O1513   2.163       .  S
Fe1501     O1502   2.051       .  S
Fe1501     O1510   1.953       .  S
O1502      C1509   1.269       .  A
O1503      C1517   1.285       .  A
O1504      C1509   1.280       .  A
O1505      C1508   1.245       .  A
O1506      C1518   1.277       .  A
O1507      C1520   1.257   1_565  A
C1508      O1513   1.283       .  A
C1508      C1739   1.453       .  S
C1509      C1732   1.439       .  S
O1511      C1514   1.272       .  A
O1512      C1514   1.260       .  A
O1515      C1520   1.268       .  A
O1516      C1518   1.258       .  A
C1517      O1519   1.288       .  A
C1517      C1721   1.484       .  S
C1518      C1723   1.422       .  S
C1520      C1765   1.422   1_545  S
Fe1521     O1527   2.029       .  S
Fe1521     O1526   2.047       .  S
Fe1521     O1532   1.968       .  S
Fe1522     O1525   2.090       .  S
Fe1522     O1529   2.066       .  S
Fe1522     O1533   2.066       .  S
Fe1522     O1538   2.041       .  S
Fe1522     O1532   1.927       .  S
Fe1523     O1541   2.139       .  S
Fe1523     O1528   2.089       .  S
Fe1523     O1535   2.134       .  S
Fe1523     O1524   2.141       .  S
Fe1523     O1532   1.922       .  S
O1524      C1531   1.291       .  A
O1525      C1539   1.274       .  A
O1526      C1531   1.278       .  A
O1527      C1530   1.249       .  A
O1528      C1540   1.277       .  A
C1530      O1535   1.274       .  A
C1530      C1718   1.449       .  S
C1531      C1720   1.447       .  S
O1534      C1536   1.260       .  A
C1536      C1784   1.423       .  S
O1537      C1542   1.270       .  A
O1538      C1540   1.269       .  A
C1539      O1541   1.284       .  A
C1539      C1722   1.483       .  S
C1540      C1769   1.428       .  S
C1542      C1715   1.421       .  S
Fe1543     O1549   2.111       .  S
Fe1543     O1548   2.010       .  S
Fe1543     O1554   1.944       .  S
Fe1544     O1547   2.023       .  S
Fe1544     O1551   2.079       .  S
Fe1544     O1555   2.001       .  S
Fe1544     O1560   2.127       .  S
Fe1544     O1554   1.926       .  S
Fe1545     O1563   2.100       .  S
Fe1545     O1550   2.143       .  S
Fe1545     O1557   2.060       .  S
Fe1545     O1546   2.156       .  S
Fe1545     O1554   1.952       .  S
O1546      C1553   1.278       .  A
O1547      C1561   1.258       .  A
O1548      C1553   1.241       .  A
O1549      C1552   1.282       .  A
O1550      C1562   1.294       .  A
C1552      O1557   1.273       .  A
C1552      C1719   1.445       .  S
C1553      C1713   1.456       .  S
O1555      C1558   1.262       .  A
O1559      C1564   1.257       .  A
O1560      C1562   1.282       .  A
C1561      O1563   1.275       .  A
C1561      C1760   1.418       .  S
C1562      C1728   1.497       .  S
C1564      C1774   1.425       .  S
Fe1565     O1581   2.057       .  S
Fe1565     O1571   2.016   1_455  S
Fe1565     O1570   2.091   1_455  S
Fe1565     O1576   1.947   1_455  S
Fe1566     O1569   2.128       .  S
Fe1566     O1573   2.046       .  S
Fe1566     O1577   2.087   1_655  S
Fe1566     O1582   2.025       .  S
Fe1566     O1576   1.970       .  S
Fe1567     O1585   2.124       .  S
Fe1567     O1572   2.092       .  S
Fe1567     O1579   2.153       .  S
Fe1567     O1568   2.068       .  S
Fe1567     O1576   1.937       .  S
O1568      C1575   1.270       .  A
O1569      C1583   1.283       .  A
O1570      C1575   1.274       .  A
O1571      C1574   1.251       .  A
O1572      C1584   1.275       .  A
O1573      C1586   1.256   1_655  A
C1574      O1579   1.285       .  A
C1574      C1717   1.447       .  S
C1575      C1709   1.444       .  S
O1578      C1580   1.256       .  A
C1580      C1763   1.419       .  S
O1581      C1586   1.269       .  A
O1582      C1584   1.261       .  A
C1583      O1585   1.288       .  A
C1583      C1735   1.489       .  S
C1584      C1792   1.415       .  S
C1586      C1707   1.423   1_455  S
Fe1587     O1593   2.074       .  S
Fe1587     O1592   2.010       .  S
Fe1587     O1598   1.953   1_455  S
Fe1588     O1591   2.028       .  S
Fe1588     O1595   2.090   1_655  S
Fe1588     O1599   2.045   1_655  S
Fe1588     O1604   2.134       .  S
Fe1588     O1598   1.992       .  S
Fe1589     O1607   2.115       .  S
Fe1589     O1594   2.130       .  S
Fe1589     O1601   2.087       .  S
Fe1589     O1590   2.165       .  S
Fe1589     O1598   1.935       .  S
O1590      C1597   1.291       .  A
O1591      C1605   1.261       .  A
O1592      C1597   1.256   1_455  A
O1593      C1596   1.271   1_455  A
O1594      C1606   1.287       .  A
C1596      O1601   1.274       .  A
C1596      C1710   1.444       .  S
C1597      C1714   1.453   1_655  S
O1599      C1602   1.256       .  A
C1602      C1705   1.424       .  S
O1603      C1608   1.251       .  A
O1604      C1606   1.282       .  A
C1605      O1607   1.282       .  A
C1605      C1780   1.420       .  S
C1606      C1743   1.495       .  S
C1608      C1756   1.430       .  S
Fe1609     O1615   2.069       .  S
Fe1609     O1614   2.011       .  S
Fe1609     O1620   1.958   1_455  S
Fe1610     O1613   2.027       .  S
Fe1610     O1617   2.081   1_655  S
Fe1610     O1621   2.049   1_655  S
Fe1610     O1626   2.113       .  S
Fe1610     O1620   2.002       .  S
Fe1611     O1629   2.124       .  S
Fe1611     O1616   2.114       .  S
Fe1611     O1623   2.086       .  S
Fe1611     O1612   2.169       .  S
Fe1611     O1620   1.937       .  S
O1612      C1619   1.292   1_655  A
O1613      C1627   1.268       .  A
O1614      C1619   1.256       .  A
O1615      C1618   1.270   1_455  A
O1616      C1628   1.280       .  A
C1618      O1623   1.272       .  A
C1618      C1703   1.447   1_556  S
C1619      C1701   1.455       .  S
O1621      C1624   1.258       .  A
C1624      C1712   1.424       .  S
O1625      C1630   1.249       .  A
O1626      C1628   1.275       .  A
C1627      O1629   1.287       .  A
C1627      C1752   1.427       .  S
C1628      C1771   1.480       .  S
C1630      C1730   1.426       .  S
Fe1631     O1647   2.063       .  S
Fe1631     O1637   2.015   1_455  S
Fe1631     O1636   2.091   1_455  S
Fe1631     O1642   1.942   1_455  S
Fe1632     O1635   2.138       .  S
Fe1632     O1639   2.043       .  S
Fe1632     O1643   2.092   1_655  S
Fe1632     O1648   2.029       .  S
Fe1632     O1642   1.966       .  S
Fe1633     O1651   2.149       .  S
Fe1633     O1638   2.097       .  S
Fe1633     O1645   2.176       .  S
Fe1633     O1634   2.080       .  S
Fe1633     O1642   1.936       .  S
O1634      C1641   1.273       .  A
O1635      C1649   1.285       .  A
O1636      C1641   1.274       .  A
O1637      C1640   1.249       .  A
O1638      C1650   1.276       .  A
O1639      C1652   1.257   1_655  A
C1640      O1645   1.289       .  A
C1640      C1700   1.461       .  S
C1641      C1704   1.447       .  S
O1644      C1646   1.254       .  A
C1646      C1724   1.423       .  S
O1647      C1652   1.272       .  A
O1648      C1650   1.260       .  A
C1649      O1651   1.297       .  A
C1649      C1782   1.506       .  S
C1650      C1742   1.415       .  S
C1652      C1716   1.422   1_455  S
Fe1653     O1659   2.135       .  S
Fe1653     O1658   2.009       .  S
Fe1653     O1664   1.933       .  S
Fe1654     O1657   2.032       .  S
Fe1654     O1661   2.073       .  S
Fe1654     O1665   2.009       .  S
Fe1654     O1670   2.115       .  S
Fe1654     O1664   1.921       .  S
Fe1655     O1673   2.100       .  S
Fe1655     O1660   2.135       .  S
Fe1655     O1667   2.062       .  S
Fe1655     O1656   2.155       .  S
Fe1655     O1664   1.957       .  S
O1656      C1663   1.272       .  A
O1657      C1671   1.257       .  A
O1658      C1663   1.234       .  A
O1659      C1662   1.291       .  A
O1660      C1672   1.295       .  A
C1662      O1667   1.277       .  A
C1662      C1697   1.455       .  S
C1663      C1702   1.456       .  S
O1665      C1668   1.262       .  A
O1669      C1674   1.258       .  A
O1670      C1672   1.281       .  A
C1671      O1673   1.273       .  A
C1671      C1733   1.424       .  S
C1672      C1754   1.484       .  S
C1674      C1746   1.426       .  S
Fe1675     O1681   2.031       .  S
Fe1675     O1680   2.049       .  S
Fe1675     O1686   1.972       .  S
Fe1676     O1679   2.108       .  S
Fe1676     O1683   2.068       .  S
Fe1676     O1687   2.067       .  S
Fe1676     O1692   2.039       .  S
Fe1676     O1686   1.927       .  S
Fe1677     O1695   2.157       .  S
Fe1677     O1682   2.087       .  S
Fe1677     O1689   2.154       .  S
Fe1677     O1678   2.162       .  S
Fe1677     O1686   1.920       .  S
O1678      C1685   1.298       .  A
O1679      C1693   1.277       .  A
O1680      C1685   1.279       .  A
O1681      C1684   1.246       .  A
O1682      C1694   1.277       .  A
C1684      O1689   1.276       .  A
C1684      C1699   1.462       .  S
C1685      C1698   1.456       .  S
O1688      C1690   1.261       .  A
C1690      C1737   1.426       .  S
O1691      C1696   1.272       .  A
O1692      C1694   1.269       .  A
C1693      O1695   1.288       .  A
C1693      C1761   1.503       .  S
C1694      C1726   1.424       .  S
C1696      C1708   1.419       .  S
C1697      C1698   1.220   1_556  T
C1703      C1704   1.213       .  T
C1705      C1706   1.199   1_455  T
C1707      C1708   1.198       .  T
C1709      C1710   1.211       .  T
C1711      C1712   1.199   1_655  T
C1715      C1716   1.199       .  T
C1719      C1720   1.213       .  T
C1721      C1722   1.235       .  T
C1723      C1724   1.199       .  T
C1725      C1726   1.199       .  T
C1727      C1728   1.245       .  T
C1729      C1730   1.201       .  T
C1731      C1732   1.210       .  T
C1733      C1734   1.200       .  T
C1735      C1736   1.236       .  T
C1737      C1738   1.201       .  T
C1739      C1740   1.220       .  T
C1741      C1742   1.195       .  T
C1743      C1744   1.242       .  T
C1745      C1746   1.200       .  T
C1747      C1748   1.221       .  T
C1749      C1750   1.214   1_554  T
C1751      C1752   1.202       .  T
C1753      C1754   1.235       .  T
C1755      C1756   1.203       .  T
C1757      C1758   1.192       .  T
C1759      C1760   1.196       .  T
C1761      C1762   1.246       .  T
C1763      C1764   1.195       .  T
C1765      C1766   1.198       .  T
C1767      C1768   1.213       .  T
C1769      C1770   1.202       .  T
C1771      C1772   1.232       .  T
C1773      C1774   1.198       .  T
C1775      C1776   1.200       .  T
C1777      C1778   1.218       .  T
C1779      C1780   1.199       .  T
C1781      C1782   1.246       .  T
C1783      C1784   1.198       .  T
C1785      C1786   1.196       .  T
C1787      C1788   1.221       .  T
C1789      C1790   1.214       .  T
C1791      C1792   1.194       .  T
