geometry optimzed in LAMMPS
_audit_creation_date              2020-11-30 
_audit_creation_method            'lammps2cif' 
_symmetry_space_group_name_H-M    'P1' 
_symmetry_Int_Tables_number       1 
_symmetry_cell_setting            triclinic 
loop_ 
_symmetry_equiv_pos_as_xyz 
  x,y,z 
_cell_length_a                    28.138118546193283 
_cell_length_b                    27.80839751655528 
_cell_length_c                    35.81564145638994 
_cell_angle_alpha                 90.61636922034997 
_cell_angle_beta                  90.08053217740053 
_cell_angle_gamma                 90.16974277651376 
loop_ 
_atom_site_label 
_atom_site_type_symbol 
_atom_site_fract_x 
_atom_site_fract_y 
_atom_site_fract_z 
_atom_site_charge 
O1          O  0.96487289  0.63839603  0.57997530    -0.85330
O2          O  0.95480492  0.73066124  0.60440545    -0.82370
C3          C  0.96402525  0.76684238  0.62453435     0.98130
O4          O  0.00326535  0.76992678  0.64171248    -0.82410
O5          O  0.05094489  0.69245685  0.68381378    -0.85050
C6          C  0.07703965  0.65520020  0.68772009     1.02660
O7          O  0.08998479  0.63196867  0.65936799    -0.77810
O8          O  0.00437046  0.60489783  0.62670096    -0.78000
C9          C  0.96638987  0.61047599  0.60811214     1.02610
O10         O  0.04212323  0.67370337  0.52921249    -0.85320
O11         O  0.02736805  0.76424133  0.55499973    -0.82390
C12         C  0.06462027  0.78601142  0.56560558     0.98150
O13         O  0.08463060  0.77578541  0.59610336    -0.82420
O14         O  0.12789860  0.70717800  0.63607348    -0.85020
C15         C  0.14855784  0.68771754  0.60881503     1.02630
O16         O  0.12783129  0.65534372  0.58932949    -0.77840
O17         O  0.04721633  0.60652452  0.55753613    -0.77990
C18         C  0.05496884  0.63059862  0.52907288     1.02590
Cr19       Cr  0.00027688  0.70034609  0.56984759     1.93740
Cr20       Cr  0.06366728  0.73267046  0.63734611     1.93210
Cr21       Cr  0.06575867  0.62917109  0.60792202     1.39100
O22         O  0.04199464  0.68805028  0.60570758    -1.23080
O23         O  0.17406463  0.43824887  0.90482712    -0.85330
O24         O  0.26863238  0.45129397  0.90105736    -0.82370
C25         C  0.28047653  0.44317659  0.86742433     0.98130
O26         O  0.26402608  0.46848432  0.84129872    -0.82410
O27         O  0.21510392  0.54968614  0.80725258    -0.85050
C28         C  0.17126665  0.54241805  0.80082637     1.02660
O29         O  0.14907589  0.51725111  0.82342197    -0.77810
O30         O  0.11408234  0.48366379  0.88781100    -0.78000
C31         C  0.13201779  0.44237497  0.89347665     1.02610
O32         O  0.16413331  0.51814071  0.95648811    -0.85320
O33         O  0.25963436  0.53748080  0.94502155    -0.82390
C34         C  0.29872446  0.54597708  0.92915983     0.98150
O35         O  0.30459980  0.53495846  0.89498468    -0.82420
O36         O  0.25023740  0.60355302  0.86691942    -0.85020
C37         C  0.21451286  0.62867176  0.86048331     1.02630
O38         O  0.17301490  0.61054306  0.85718557    -0.77840
O39         O  0.13940864  0.57716768  0.92175270    -0.77990
C40         C  0.14312403  0.55797147  0.95296271     1.02590
Cr41       Cr  0.21549990  0.48886170  0.92408311     1.93740
Cr42       Cr  0.25438985  0.53685845  0.85431384     1.93210
Cr43       Cr  0.14787690  0.54535866  0.87343642     1.39100
O44         O  0.20553726  0.52385609  0.88406338    -1.23080
O45         O  0.53269765  0.80145939  0.59825019    -0.85330
O46         O  0.51656956  0.70425114  0.59634907    -0.82370
C47         C  0.51558552  0.68538195  0.62875435     0.98130
O48         O  0.48600629  0.69919609  0.65321357    -0.82410
O49         O  0.40107438  0.74827464  0.68167311    -0.85050
C50         C  0.41297141  0.78885660  0.69554303     1.02660
O51         O  0.44328811  0.81219818  0.67785005    -0.77810
O52         O  0.48649766  0.85858525  0.62051148    -0.78000
C53         C  0.52781708  0.84200850  0.61377659     1.02610
O54         O  0.45824338  0.81739393  0.54230792    -0.85320
O55         O  0.43872422  0.72179080  0.54463721    -0.82390
C56         C  0.42938716  0.67959888  0.55452433     0.98150
O57         O  0.43316637  0.66915148  0.58870403    -0.82420
O58         O  0.36507258  0.72790938  0.60888519    -0.85020
C59         C  0.33751953  0.75898876  0.62114553     1.02630
O60         O  0.35432729  0.79855874  0.63418213    -0.77840
O61         O  0.40014407  0.84199100  0.57797443    -0.77990
C62         C  0.41848091  0.83827723  0.54637015     1.02590
Cr63       Cr  0.48419719  0.76205937  0.57318093     1.93740
Cr64       Cr  0.42358649  0.71530155  0.63251584     1.93210
Cr65       Cr  0.42308029  0.82430132  0.62657860     1.39100
O66         O  0.44489523  0.76792801  0.61108193    -1.23080
O67         O  0.30280005  0.02457915  0.89526506    -0.85330
O68         O  0.20691384  0.01072913  0.89480413    -0.82370
C69         C  0.19071729  0.01007427  0.86166389     0.98130
O70         O  0.20609101  0.98012934  0.83771089    -0.82410
O71         O  0.25620069  0.89410232  0.81060400    -0.85050
C72         C  0.29836727  0.90421685  0.80044494     1.02660
O73         O  0.32231590  0.93147330  0.82118481    -0.77810
O74         O  0.36146635  0.97545910  0.88248918    -0.78000
C75         C  0.34521133  0.01807876  0.88560842     1.02610
O76         O  0.31465464  0.95362903  0.95402174    -0.85320
O77         O  0.21824349  0.93470046  0.94691965    -0.82390
C78         C  0.17766113  0.92459553  0.93401335     0.98150
O79         O  0.17061573  0.92549472  0.89903563    -0.82420
O80         O  0.22578808  0.85285284  0.87811107    -0.85020
C81         C  0.26091350  0.82660871  0.87240637     1.02630
O82         O  0.30101196  0.84449653  0.86334313    -0.77840
O83         O  0.33660951  0.88877897  0.92378327    -0.77990
C84         C  0.33605583  0.91347290  0.95312794     1.02590
Cr85       Cr  0.26165170  0.97794234  0.92008528     1.93740
Cr86       Cr  0.21898733  0.91553908  0.85762880     1.93210
Cr87       Cr  0.32627598  0.91213015  0.87341853     1.39100
O88         O  0.26929342  0.93557691  0.88364449    -1.23080
O89         O  0.67500925  0.52649131  0.60246196    -0.85330
O90         O  0.77181557  0.51538844  0.60209736    -0.82370
C91         C  0.78946340  0.51637794  0.63483399     0.98130
O92         O  0.77578450  0.48663876  0.65927434    -0.82410
O93         O  0.72658836  0.40056853  0.68855195    -0.85050
C94         C  0.68421644  0.41017325  0.69861373     1.02660
O95         O  0.66183598  0.43869906  0.67851870    -0.77810
O96         O  0.61860211  0.47565931  0.61769945    -0.78000
C97         C  0.63387301  0.51851578  0.61482795     1.02610
O98         O  0.66440072  0.45143136  0.54578483    -0.85320
O99         O  0.76113100  0.43630051  0.55045781    -0.82390
C100        C  0.80133675  0.42524127  0.56340879     0.98150
O101        O  0.80943339  0.42929779  0.59813367    -0.82420
O102        O  0.75493377  0.35716988  0.61992979    -0.85020
C103        C  0.72208445  0.33045907  0.63055261     1.02630
O104        O  0.68191475  0.34819360  0.63932001    -0.77840
O105        O  0.64372523  0.38795588  0.57785291    -0.77990
C106        C  0.64407825  0.41074732  0.54792467     1.02590
Cr107      Cr  0.71724746  0.47965733  0.57794042     1.93740
Cr108      Cr  0.76248308  0.42075840  0.64035640     1.93210
Cr109      Cr  0.65532928  0.41464214  0.62736725     1.39100
O110        O  0.71139289  0.43886311  0.61513651    -1.23080
O111        O  0.45143847  0.29864917  0.89521844    -0.85330
O112        O  0.46945866  0.20318454  0.89902562    -0.82370
C113        C  0.46610788  0.18450206  0.86648507     0.98130
O114        O  0.49342104  0.19802103  0.84044171    -0.82410
O115        O  0.57500736  0.24882835  0.80688779    -0.85050
C116        C  0.56381127  0.29024444  0.79492788     1.02660
O117        O  0.53596009  0.31475762  0.81450456    -0.77810
O118        O  0.49555517  0.35844400  0.87534863    -0.78000
C119        C  0.45485063  0.33964486  0.88092762     1.02610
O120        O  0.52613927  0.32101736  0.94865664    -0.85320
O121        O  0.55053441  0.22537075  0.94585176    -0.82390
C122        C  0.56257359  0.18408348  0.93477156     0.98150
O123        O  0.55391208  0.17148451  0.90131855    -0.82420
O124        O  0.62052739  0.22913835  0.87543896    -0.85020
C125        C  0.64502584  0.26259169  0.86295193     1.02630
O126        O  0.62599271  0.30212347  0.85340723    -0.77840
O127        O  0.58571861  0.34271920  0.91399111    -0.77990
C128        C  0.56485723  0.34383152  0.94481831     1.02590
Cr129      Cr  0.50187485  0.26272510  0.91945557     1.93740
Cr130      Cr  0.55831209  0.21597909  0.85686756     1.93210
Cr131      Cr  0.55894041  0.32576174  0.86548389     1.39100
O132        O  0.53883105  0.26866386  0.88022129    -1.23080
O133        O  0.81388022  0.93728971  0.59150976    -0.85330
O134        O  0.71824775  0.95309861  0.59163101    -0.82370
C135        C  0.70323379  0.94849777  0.62493184     0.98130
O136        O  0.71930378  0.97495994  0.65101933    -0.82410
O137        O  0.77037277  0.05618606  0.68564996    -0.85050
C138        C  0.81361347  0.04716949  0.69351108     1.02660
O139        O  0.83584418  0.02047871  0.67178777    -0.77810
O140        O  0.87326716  0.98403889  0.60880899    -0.78000
C141        C  0.85547284  0.94220851  0.60405264     1.02610
O142        O  0.82963784  0.01509226  0.53869804    -0.85320
O143        O  0.73445510  0.03695546  0.54652876    -0.82390
C144        C  0.69480220  0.04857411  0.56020743     0.98150
O145        O  0.68534359  0.03878317  0.59398651    -0.82420
O146        O  0.74040597  0.10752329  0.62261939    -0.85020
C147        C  0.77491993  0.13251041  0.63310389     1.02630
O148        O  0.81541032  0.11331364  0.63799043    -0.77840
O149        O  0.84869075  0.07559017  0.57432264    -0.77990
C150        C  0.84939908  0.05588200  0.54299605     1.02590
Cr151      Cr  0.77484966  0.98801704  0.56987330     1.93740
Cr152      Cr  0.73275286  0.04190200  0.63697295     1.93210
Cr153      Cr  0.83960091  0.04652586  0.62209682     1.39100
O154        O  0.78273307  0.02498820  0.60983272    -1.23080
O155        O  0.03085164  0.15622042  0.90256265    -0.85330
O156        O  0.02465800  0.25244733  0.90229918    -0.82370
C157        C  0.02989040  0.26698237  0.86908581     0.98130
O158        O  0.00153889  0.25273439  0.84363194    -0.82410
O159        O  0.91201278  0.20760212  0.81357106    -0.85050
C160        C  0.91688917  0.16283506  0.80581001     1.02660
O161        O  0.94080075  0.13837616  0.82762026    -0.77810
O162        O  0.97797066  0.10057166  0.88861348    -0.78000
C163        C  0.02107171  0.11504076  0.88993023     1.02610
O164        O  0.95845990  0.14873608  0.95906241    -0.85320
O165        O  0.94539264  0.24807719  0.95070259    -0.82390
C166        C  0.94014940  0.28970902  0.93734856     0.98150
O167        O  0.94587669  0.29611611  0.90250298    -0.82420
O168        O  0.87080074  0.24941108  0.87859717    -0.85020
C169        C  0.84166437  0.21653204  0.87329153     1.02630
O170        O  0.85568954  0.17357539  0.86759710    -0.77840
O171        O  0.89253961  0.13680841  0.92888150    -0.77990
C172        C  0.91644312  0.13243939  0.95795662     1.02590
Cr173      Cr  0.98696828  0.20077483  0.92618903     1.93740
Cr174      Cr  0.93463616  0.24701343  0.86068943     1.93210
Cr175      Cr  0.91879990  0.14088860  0.87901128     1.39100
O176        O  0.94723724  0.19589966  0.88837080    -1.23080
O177        O  0.87013447  0.47587148  0.11528704    -0.85330
O178        O  0.82546711  0.44035674  0.17527818    -0.82370
C179        C  0.80062571  0.41380398  0.19517141     0.98130
O180        O  0.75827638  0.40524367  0.18422904    -0.82410
O181        O  0.71299125  0.49086240  0.15085610    -0.85050
C182        C  0.70069584  0.51866852  0.12471244     1.02660
O183        O  0.71907014  0.51390357  0.09240555    -0.77810
O184        O  0.81440391  0.52576890  0.09732041    -0.78000
C185        C  0.85486656  0.51856039  0.11110971     1.02610
O186        O  0.84426441  0.38614545  0.07604678    -0.85320
O187        O  0.80403857  0.34935115  0.13689233    -0.82390
C188        C  0.76401237  0.33198739  0.12713467     0.98150
O189        O  0.73157972  0.35905854  0.11648743    -0.82420
O190        O  0.68109110  0.43114463  0.09017360    -0.85020
C191        C  0.69122412  0.42497523  0.05591560     1.02630
O192        O  0.73340207  0.43166600  0.04485782    -0.77840
O193        O  0.83200668  0.45040891  0.04349960    -0.77990
C194        C  0.85187430  0.40986557  0.04728954     1.02590
Cr195      Cr  0.83258720  0.41481540  0.12478935     1.93740
Cr196      Cr  0.72518100  0.42372077  0.13455850     1.93210
Cr197      Cr  0.77509834  0.47765945  0.07202993     1.39100
O198        O  0.77796789  0.43939302  0.11071727    -1.23080
O199        O  0.98263856  0.36264554  0.37497432    -0.85330
O200        O  0.93909216  0.32028816  0.31698984    -0.82370
C201        C  0.91256113  0.29493098  0.29714083     0.98130
O202        O  0.90562034  0.25176803  0.30710357    -0.82410
O203        O  0.99522050  0.20767146  0.33507660    -0.85050
C204        C  0.02497229  0.19463768  0.35966883     1.02660
O205        O  0.02255916  0.21082888  0.39293551    -0.77810
O206        O  0.03137854  0.30777989  0.39656044    -0.78000
C207        C  0.02463679  0.34776819  0.38133270     1.02610
O208        O  0.89768866  0.34086382  0.41958132    -0.85320
O209        O  0.85487684  0.29574149  0.36274794    -0.82390
C210        C  0.83921361  0.25374063  0.37021624     0.98150
O211        O  0.86665998  0.21892206  0.37381106    -0.82420
O212        O  0.94187974  0.16777165  0.39513687    -0.85020
C213        C  0.93540454  0.17600069  0.42954793     1.02630
O214        O  0.94252004  0.21795459  0.44203447    -0.77840
O215        O  0.95721859  0.31437861  0.45253759    -0.77990
C216        C  0.91882370  0.33779460  0.45012702     1.02590
Cr217      Cr  0.92065676  0.32566274  0.36940164     1.93740
Cr218      Cr  0.92973045  0.21641956  0.35409095     1.93210
Cr219      Cr  0.98553617  0.26348597  0.41819470     1.39100
O220        O  0.94573504  0.26918175  0.38048462    -1.23080
O221        O  0.61168634  0.98942467  0.11346253    -0.85330
O222        O  0.64951723  0.02421566  0.17777387    -0.82370
C223        C  0.67181720  0.05091265  0.20000986     0.98130
O224        O  0.71468413  0.06104682  0.19178555    -0.82410
O225        O  0.76708608  0.97975053  0.15881333    -0.85050
C226        C  0.78150117  0.95202957  0.13290532     1.02660
O227        O  0.76603980  0.95636636  0.09978699    -0.77810
O228        O  0.67072220  0.94169035  0.09881537    -0.78000
C229        C  0.62877977  0.94743684  0.11009474     1.02610
O230        O  0.63748164  0.08064933  0.07891596    -0.85320
O231        O  0.66913333  0.11657714  0.14396132    -0.82390
C232        C  0.70903347  0.13620057  0.13777667     0.98150
O233        O  0.74448126  0.11182730  0.12852387    -0.82420
O234        O  0.80116784  0.04244071  0.10174593    -0.85020
C235        C  0.79356084  0.04750671  0.06704727     1.02630
O236        O  0.75287147  0.03888611  0.05381449    -0.77840
O237        O  0.65794357  0.01820837  0.04549834    -0.77990
C238        C  0.64062295  0.06004417  0.04773203     1.02590
Cr239      Cr  0.64561112  0.05084299  0.12762237     1.93740
Cr240      Cr  0.75281068  0.04650009  0.14381072     1.93210
Cr241      Cr  0.71099520  0.99133273  0.07723726     1.39100
O242        O  0.70288014  0.02910976  0.11640485    -1.23080
O243        O  0.49577861  0.10606735  0.38074676    -0.85330
O244        O  0.53188666  0.14710860  0.31938278    -0.82370
C245        C  0.55644480  0.17245127  0.29825114     0.98130
O246        O  0.56624186  0.21505746  0.30888830    -0.82410
O247        O  0.48812384  0.26449881  0.34859725    -0.85050
C248        C  0.46496779  0.27993347  0.37653877     1.02660
O249        O  0.47149792  0.26155583  0.40832273    -0.77810
O250        O  0.45224959  0.16597418  0.40154403    -0.78000
C251        C  0.45522916  0.12558547  0.38559976     1.02610
O252        O  0.58893658  0.12455470  0.41711216    -0.85320
O253        O  0.62458404  0.16236780  0.35478466    -0.82390
C254        C  0.64414211  0.20305857  0.36097713     0.98150
O255        O  0.62074423  0.23891460  0.37094183    -0.82420
O256        O  0.55723051  0.29215719  0.40541863    -0.85020
C257        C  0.56622439  0.28059678  0.43897857     1.02630
O258        O  0.55428856  0.23975423  0.45094259    -0.77840
O259        O  0.52869842  0.14348429  0.45237221    -0.77990
C260        C  0.56941293  0.12510490  0.44847571     1.02590
Cr261      Cr  0.55867702  0.13862727  0.36927066     1.93740
Cr262      Cr  0.55537949  0.24845030  0.35971810     1.93210
Cr263      Cr  0.50416187  0.20181106  0.42530415     1.39100
O264        O  0.53945858  0.19599376  0.38465664    -1.23080
O265        O  0.48712144  0.60888079  0.10814943    -0.85330
O266        O  0.44578531  0.64824750  0.16972583    -0.82370
C267        C  0.41848491  0.67167708  0.19045610     0.98130
O268        O  0.40749913  0.71383927  0.18070881    -0.82410
O269        O  0.49202517  0.76282522  0.15407099    -0.85050
C270        C  0.52174281  0.77738452  0.13022075     1.02660
O271        O  0.51933679  0.76408393  0.09621914    -0.77810
O272        O  0.53299638  0.66878131  0.09097124    -0.78000
C273        C  0.52828292  0.62650002  0.10239491     1.02610
O274        O  0.39929198  0.63059124  0.06766650    -0.85320
O275        O  0.35758600  0.66817893  0.12890941    -0.82390
C276        C  0.33961260  0.70917438  0.12178573     0.98150
O277        O  0.36548607  0.74415932  0.11402405    -0.82420
O278        O  0.43610739  0.80191880  0.09491092    -0.85020
C279        C  0.43025273  0.79570016  0.06016836     1.02630
O280        O  0.44043692  0.75574019  0.04532382    -0.77840
O281        O  0.45857559  0.65938733  0.03507039    -0.77990
C282        C  0.41996327  0.63609770  0.03710659     1.02590
Cr283      Cr  0.42432653  0.64299214  0.11776540     1.93740
Cr284      Cr  0.42762009  0.75140785  0.13447755     1.93210
Cr285      Cr  0.48505031  0.71087431  0.06956559     1.39100
O286        O  0.44605570  0.70117624  0.10716903    -1.23080
O287        O  0.36727510  0.49440125  0.37295468    -0.85330
O288        O  0.32616250  0.52707961  0.30995313    -0.82370
C289        C  0.30282412  0.55249806  0.28809895     0.98130
O290        O  0.26027881  0.56261761  0.29733812    -0.82410
O291        O  0.21039396  0.48059044  0.32964256    -0.85050
C292        C  0.19661924  0.45288886  0.35528729     1.02660
O293        O  0.21366067  0.45661629  0.38801490    -0.77810
O294        O  0.30940988  0.44317450  0.38405870    -0.78000
C295        C  0.35160620  0.45157843  0.37468914     1.02610
O296        O  0.34031510  0.58413552  0.40940255    -0.85320
O297        O  0.30515942  0.61990665  0.34466674    -0.82390
C298        C  0.26458089  0.63774990  0.35187121     0.98150
O299        O  0.23166186  0.61199929  0.36338334    -0.82420
O300        O  0.17847811  0.54224321  0.38938996    -0.85020
C301        C  0.18880370  0.54959530  0.42350115     1.02630
O302        O  0.22930447  0.53803460  0.43548071    -0.77840
O303        O  0.32539106  0.51869035  0.44013009    -0.77990
C304        C  0.34390127  0.56036141  0.43887410     1.02590
Cr305      Cr  0.33122565  0.55467056  0.36002714     1.93740
Cr306      Cr  0.22417037  0.54720275  0.34602412     1.93210
Cr307      Cr  0.27000294  0.49154492  0.40940855     1.39100
O308        O  0.27530794  0.53071745  0.37164943    -1.23080
O309        O  0.99528179  0.86141263  0.11910623    -0.85330
O310        O  0.03820764  0.81824022  0.17749415    -0.82370
C311        C  0.06664894  0.79473818  0.19680804     0.98130
O312        O  0.07754235  0.75303785  0.18496206    -0.82410
O313        O  0.99107107  0.70548869  0.15728331    -0.85050
C314        C  0.96117141  0.69102452  0.13315353     1.02660
O315        O  0.96194515  0.70672729  0.09985681    -0.77810
O316        O  0.94811126  0.80272827  0.10060500    -0.78000
C317        C  0.95368872  0.84395350  0.11481426     1.02610
O318        O  0.08138653  0.84105660  0.07593101    -0.85320
O319        O  0.12536338  0.80028755  0.13382571    -0.82390
C320        C  0.14240951  0.76018856  0.12244231     0.98150
O321        O  0.11566738  0.72572982  0.11485715    -0.82420
O322        O  0.04409218  0.67052228  0.09474757    -0.85020
C323        C  0.05096563  0.67965313  0.06066671     1.02630
O324        O  0.03992828  0.72022569  0.04802641    -0.77840
O325        O  0.01967543  0.81743154  0.04351670    -0.77990
C326        C  0.05873958  0.84019296  0.04584490     1.02590
Cr327      Cr  0.05818755  0.82651115  0.12570130     1.93740
Cr328      Cr  0.05479536  0.71792677  0.13699529     1.93210
Cr329      Cr  0.99513603  0.76253340  0.07548518     1.39100
O330        O  0.03546021  0.76957950  0.11276151    -1.23080
O331        O  0.11426385  0.98077853  0.38562526    -0.85330
O332        O  0.15354536  0.94102592  0.32387195    -0.82370
C333        C  0.17635070  0.91338943  0.30289890     0.98130
O334        O  0.21864110  0.90308950  0.31250598    -0.82410
O335        O  0.26870595  0.98776500  0.34069277    -0.85050
C336        C  0.28420002  0.01747406  0.36481529     1.02660
O337        O  0.26866467  0.01676129  0.39822232    -0.77810
O338        O  0.17249276  0.03037534  0.39994813    -0.78000
C339        C  0.13089548  0.02337338  0.38792448     1.02610
O340        O  0.13965399  0.89215282  0.42525795    -0.85320
O341        O  0.17464236  0.85143615  0.36148299    -0.82390
C342        C  0.21558065  0.83407289  0.36830821     0.98150
O343        O  0.24739427  0.86042110  0.38123622    -0.82420
O344        O  0.30484706  0.93202956  0.40099585    -0.85020
C345        C  0.29645266  0.92497630  0.43513697     1.02630
O346        O  0.25680133  0.93759866  0.44845782    -0.77840
O347        O  0.16149920  0.95645261  0.45668565    -0.77990
C348        C  0.14235998  0.91500486  0.45555599     1.02590
Cr349      Cr  0.14909449  0.91825989  0.37515024     1.93740
Cr350      Cr  0.25591822  0.92294857  0.36001464     1.93210
Cr351      Cr  0.21397332  0.98282805  0.42330951     1.39100
O352        O  0.20583702  0.94221524  0.38591182    -1.23080
C353        C  0.07678370  0.86650093  0.23876694    -0.12250
C354        C  0.09347584  0.82100422  0.22736195     0.04760
C355        C  0.13843279  0.80645859  0.24106523    -0.07530
C356        C  0.16600375  0.83803228  0.26361749    -0.08280
C357        C  0.14961610  0.88416172  0.27402321    -0.02830
C358        C  0.10353155  0.89741188  0.26191668     0.03990
N359        N  0.08226887  0.94163739  0.27373535     0.66490
H360        H  0.04224089  0.87861645  0.22955941     0.15390
H361        H  0.19995185  0.82558998  0.27400288     0.15100
N362        N  0.15656397  0.75959901  0.23304967     0.74200
O363        O  0.07772141  0.97531462  0.25069095    -0.39250
O364        O  0.05826958  0.94257297  0.30347126    -0.39190
O365        O  0.17867955  0.75210867  0.20300249    -0.39900
O366        O  0.16030605  0.72974712  0.25912853    -0.39970
C367        C  0.19388312  0.75138390  0.34905107    -0.12250
C368        C  0.22915893  0.78474930  0.35825061     0.04760
C369        C  0.27784204  0.77054843  0.35739733    -0.07530
C370        C  0.28918001  0.72224534  0.35285255    -0.08280
C371        C  0.25348744  0.68843261  0.34701253    -0.02830
C372        C  0.20561560  0.70343196  0.34217939     0.03990
N373        N  0.16875161  0.67044766  0.33055954     0.66490
H374        H  0.15711107  0.76261327  0.34723432     0.15390
H375        H  0.32592869  0.71096127  0.35498264     0.15100
N376        N  0.31628305  0.80440801  0.36068338     0.74200
O377        O  0.12667354  0.67598446  0.34200310    -0.39250
O378        O  0.17685740  0.63943308  0.30536814    -0.39190
O379        O  0.35034567  0.79620561  0.38267579    -0.39900
O380        O  0.32045114  0.83745823  0.33699543    -0.39970
C381        C  0.27595371  0.76905565  0.12772919    -0.12250
C382        C  0.28877414  0.71996511  0.12448212     0.04760
C383        C  0.25321503  0.68488635  0.12079271    -0.07530
C384        C  0.20619478  0.69981735  0.11872933    -0.08280
C385        C  0.19337353  0.74903955  0.12113105    -0.02830
C386        C  0.22893360  0.78405213  0.12532219     0.03990
N387        N  0.21851874  0.83458826  0.12582831     0.66490
H388        H  0.30295937  0.79667484  0.13087670     0.15390
H389        H  0.17935847  0.67193078  0.11631493     0.15100
N390        N  0.26365102  0.63440447  0.11901951     0.74200
O391        O  0.24065979  0.86239136  0.14791380    -0.39250
O392        O  0.19381744  0.85248281  0.10003762    -0.39190
O393        O  0.28338757  0.61448797  0.14644516    -0.39900
O394        O  0.24376732  0.60827417  0.09452408    -0.39970
C395        C  0.34072800  0.65125878  0.21999713    -0.12250
C396        C  0.39047847  0.64529834  0.21926683     0.04760
C397        C  0.41030080  0.60655104  0.23912284    -0.07530
C398        C  0.38010542  0.57474247  0.25831783    -0.08280
C399        C  0.33013925  0.58039208  0.25921706    -0.02830
C400        C  0.31037059  0.61892737  0.23883418     0.03990
N401        N  0.25982493  0.62477758  0.23550458     0.66490
H402        H  0.32493778  0.67953514  0.20357713     0.15390
H403        H  0.39641121  0.54630028  0.27423706     0.15100
N404        N  0.46102171  0.59978597  0.24107407     0.74200
O405        O  0.24232696  0.66631932  0.23263573    -0.39250
O406        O  0.23373888  0.58870364  0.22870553    -0.39190
O407        O  0.48877370  0.63555572  0.24084495    -0.39900
O408        O  0.47803790  0.55860633  0.24705029    -0.39970
C409        C  0.32373922  0.09582049  0.37119870    -0.12250
C410        C  0.32577693  0.04866098  0.35739488     0.04760
C411        C  0.37070897  0.02914546  0.34744510    -0.07530
C412        C  0.41235154  0.05510453  0.35666358    -0.08280
C413        C  0.41034974  0.10105650  0.37326090    -0.02830
C414        C  0.36501425  0.12285247  0.37775101     0.03990
N415        N  0.35983699  0.17232138  0.38870402     0.66490
H416        H  0.28948123  0.11139005  0.37796343     0.15390
H417        H  0.44668103  0.03915560  0.35093962     0.15100
N418        N  0.37510377  0.98288908  0.32926070     0.74200
O419        O  0.37619493  0.20479852  0.36793309    -0.39250
O420        O  0.33088933  0.18370974  0.41418069    -0.39190
O421        O  0.34612058  0.97061383  0.30397171    -0.39900
O422        O  0.41307506  0.95919241  0.33245157    -0.39970
C423        C  0.41448623  0.40269692  0.40010856    -0.12250
C424        C  0.38379517  0.41058081  0.37041028     0.04760
C425        C  0.37934351  0.37545531  0.34152882    -0.07530
C426        C  0.40675185  0.33303269  0.34356695    -0.08280
C427        C  0.43608422  0.32431960  0.37446114    -0.02830
C428        C  0.43943710  0.35984587  0.40304739     0.03990
N429        N  0.46738076  0.35319793  0.43589297     0.66490
H430        H  0.41682375  0.42893715  0.42267803     0.15390
H431        H  0.40449591  0.30624761  0.32147017     0.15100
N432        N  0.34755628  0.38196630  0.31037363     0.74200
O433        O  0.49867082  0.38419237  0.44405157    -0.39250
O434        O  0.45103074  0.32700509  0.46144311    -0.39190
O435        O  0.33458371  0.42345153  0.30079503    -0.39900
O436        O  0.33456972  0.34630139  0.29072519    -0.39970
C437        C  0.86509260  0.93820521  0.15218866    -0.12250
C438        C  0.82218406  0.91930155  0.13817530     0.04760
C439        C  0.82255087  0.87436626  0.11973275    -0.07530
C440        C  0.86577078  0.85116346  0.11318899    -0.08280
C441        C  0.90951442  0.87086714  0.12522845    -0.02830
C442        C  0.90869009  0.91423054  0.14648686     0.03990
N443        N  0.95109937  0.93437711  0.16258766     0.66490
H444        H  0.86498362  0.97293809  0.16619000     0.15390
H445        H  0.86483210  0.81723635  0.09808973     0.15100
N446        N  0.77913414  0.85222327  0.10710538     0.74200
O447        O  0.95756348  0.97932359  0.16251987    -0.39250
O448        O  0.97696439  0.90881190  0.18316771    -0.39190
O449        O  0.77858189  0.82596277  0.07812004    -0.39900
O450        O  0.74238406  0.85470072  0.12715255    -0.39970
C451        C  0.62349477  0.85885510  0.11640385    -0.12250
C452        C  0.60085133  0.90383231  0.11988900     0.04760
C453        C  0.55424928  0.90542584  0.13470362    -0.07530
C454        C  0.53163822  0.86239811  0.14460445    -0.08280
C455        C  0.55350113  0.81771936  0.13850014    -0.02830
C456        C  0.60078399  0.81588577  0.12590479     0.03990
N457        N  0.62520996  0.77063274  0.12113179     0.66490
H458        H  0.65899913  0.85684432  0.10521313     0.15390
H459        H  0.49457109  0.86357116  0.15283443     0.15100
N460        N  0.52768906  0.94929344  0.13690869     0.74200
O461        O  0.66280895  0.76818637  0.10200103    -0.39250
O462        O  0.61174645  0.73382157  0.13860294    -0.39190
O463        O  0.51853804  0.97191429  0.10739163    -0.39900
O464        O  0.50461385  0.95919021  0.16618535    -0.39970
C465        C  0.63394192  0.15177848  0.26802100    -0.12250
C466        C  0.58399197  0.14737614  0.26787666     0.04760
C467        C  0.56356660  0.10969227  0.24632365    -0.07530
C468        C  0.59338824  0.07713609  0.22686293    -0.08280
C469        C  0.64360364  0.08058707  0.22782328    -0.02830
C470        C  0.66382855  0.11850202  0.24939951     0.03990
N471        N  0.71438019  0.12263557  0.25436161     0.66490
H472        H  0.65033586  0.17919848  0.28524160     0.15390
H473        H  0.57682183  0.04956489  0.20966207     0.15100
N474        N  0.51268604  0.10463609  0.24315654     0.74200
O475        O  0.73352078  0.16360643  0.25753109    -0.39250
O476        O  0.73854269  0.08585598  0.26207656    -0.39190
O477        O  0.48603151  0.14090250  0.24635914    -0.39900
O478        O  0.49446192  0.06485424  0.23349081    -0.39970
C479        C  0.12697462  0.11114398  0.37429803    -0.12250
C480        C  0.10294835  0.06649689  0.37599447     0.04760
C481        C  0.05463886  0.06479046  0.36465528    -0.07530
C482        C  0.03211464  0.10721266  0.35288160    -0.08280
C483        C  0.05539053  0.15199109  0.35409526    -0.02830
C484        C  0.10383278  0.15374703  0.36403031     0.03990
N485        N  0.12948787  0.19867549  0.36482381     0.66490
H486        H  0.16428456  0.11328295  0.38160089     0.15390
H487        H  0.99433879  0.10605601  0.34689870     0.15100
N488        N  0.02654721  0.02185256  0.36773996     0.74200
O489        O  0.16645986  0.20348211  0.38456267    -0.39250
O490        O  0.11739928  0.23256005  0.34367348    -0.39190
O491        O  0.02378077  0.00086789  0.39874656    -0.39900
O492        O  0.99646738  0.01161745  0.34267622    -0.39970
C493        C  0.11227853  0.35173363  0.37244559    -0.12250
C494        C  0.06803444  0.37551962  0.37030527     0.04760
C495        C  0.06731146  0.42310494  0.35659251    -0.07530
C496        C  0.11031878  0.44531623  0.34620338    -0.08280
C497        C  0.15429101  0.42215266  0.35069137    -0.02830
C498        C  0.15518785  0.37431604  0.36310365     0.03990
N499        N  0.19942360  0.34886162  0.36754137     0.66490
H500        H  0.11384052  0.31506240  0.38211752     0.15390
H501        H  0.10982797  0.48285983  0.33834314     0.15100
N502        N  0.02445051  0.45091714  0.35588878     0.74200
O503        O  0.20212306  0.31354453  0.38930719    -0.39250
O504        O  0.23519226  0.35952223  0.34801187    -0.39190
O505        O  0.00055219  0.45641362  0.38542880    -0.39900
O506        O  0.01606876  0.47781553  0.32849689    -0.39970
C507        C  0.75768735  0.27046605  0.34955692    -0.12250
C508        C  0.78828236  0.24224161  0.37063084     0.04760
C509        C  0.77141546  0.19838630  0.38598179    -0.07530
C510        C  0.72530588  0.18283113  0.37790577    -0.08280
C511        C  0.69488925  0.21137297  0.35707719    -0.02830
C512        C  0.71120895  0.25571582  0.34244687     0.03990
N513        N  0.68069683  0.28680802  0.32128501     0.66490
H514        H  0.77026566  0.30367269  0.33752569     0.15390
H515        H  0.71165193  0.15061584  0.39098982     0.15100
N516        N  0.79943313  0.17078999  0.41156239     0.74200
O517        O  0.68590139  0.33188615  0.32329489    -0.39250
O518        O  0.65135582  0.26948414  0.29809583    -0.39190
O519        O  0.82199129  0.19184626  0.43750349    -0.39900
O520        O  0.79497774  0.12561351  0.41239983    -0.39970
C521        C  0.85876898  0.60549844  0.12749211    -0.12250
C522        C  0.88324037  0.56162413  0.12241069     0.04760
C523        C  0.93294184  0.56084108  0.12826079    -0.07530
C524        C  0.95653003  0.60373234  0.13811919    -0.08280
C525        C  0.93239834  0.64788276  0.13980850    -0.02830
C526        C  0.88270921  0.64877732  0.13541000     0.03990
N527        N  0.85645553  0.69322679  0.13774752     0.66490
H528        H  0.82049240  0.60639756  0.12435465     0.15390
H529        H  0.99500015  0.60352005  0.14003100     0.15100
N530        N  0.96074582  0.51863663  0.12066621     0.74200
O531        O  0.81506910  0.69594176  0.12425828    -0.39250
O532        O  0.87310936  0.72907013  0.15537845    -0.39190
O533        O  0.95714798  0.49756094  0.08938144    -0.39900
O534        O  0.99536895  0.50855596  0.14159952    -0.39970
C535        C  0.65843427  0.58987781  0.10237018    -0.12250
C536        C  0.65938609  0.55184123  0.12775960     0.04760
C537        C  0.61644667  0.53884721  0.14585105    -0.07530
C538        C  0.57373866  0.56256793  0.13653509    -0.08280
C539        C  0.57270267  0.59876664  0.10941601    -0.02830
C540        C  0.61596296  0.61196841  0.09189472     0.03990
N541        N  0.61715467  0.64487817  0.06121291     0.66490
H542        H  0.69066750  0.59943388  0.08760054     0.15390
H543        H  0.54123377  0.55291976  0.15084106     0.15100
N544        N  0.61499589  0.50070385  0.17250485     0.74200
O545        O  0.65135501  0.67403677  0.05805727    -0.39250
O546        O  0.58896026  0.63910338  0.03405903    -0.39190
O547        O  0.64294957  0.50140249  0.20009882    -0.39900
O548        O  0.58090899  0.47107552  0.17206561    -0.39970
C549        C  0.76250148  0.20138950  0.15512686    -0.12250
C550        C  0.71715199  0.18754417  0.14237513     0.04760
C551        C  0.68685068  0.22145545  0.12637804    -0.07530
C552        C  0.70448342  0.26746141  0.12025302    -0.08280
C553        C  0.75112217  0.28102245  0.13101801    -0.02830
C554        C  0.78036754  0.24731365  0.14890297     0.03990
N555        N  0.82860167  0.25767786  0.15928722     0.66490
H556        H  0.78577418  0.17492696  0.16752614     0.15390
H557        H  0.68076672  0.29302111  0.10733580     0.15100
N558        N  0.63903676  0.20978228  0.11528259     0.74200
O559        O  0.84451816  0.24233077  0.18988994    -0.39250
O560        O  0.85766359  0.27122207  0.13470728    -0.39190
O561        O  0.61118795  0.19032386  0.13825877    -0.39900
O562        O  0.62191717  0.22754891  0.08592705    -0.39970
C563        C  0.86743540  0.35761568  0.20871414    -0.12250
C564        C  0.82616378  0.38140232  0.22200560     0.04760
C565        C  0.81305214  0.37453657  0.25962145    -0.07530
C566        C  0.84165161  0.34475489  0.28218480    -0.08280
C567        C  0.88198772  0.31978745  0.26878260    -0.02830
C568        C  0.89539981  0.32679915  0.23114359     0.03990
N569        N  0.93699483  0.30403614  0.21515350     0.66490
H570        H  0.87820376  0.36342878  0.18009617     0.15390
H571        H  0.83299083  0.34263211  0.31136915     0.15100
N572        N  0.77343821  0.39961094  0.27634785     0.74200
O573        O  0.94752328  0.31048490  0.18130297    -0.39250
O574        O  0.96284412  0.27638672  0.23408289    -0.39190
O575        O  0.73831406  0.41256363  0.25702958    -0.39900
O576        O  0.77226921  0.40682965  0.31121009    -0.39970
C577        C  0.93519930  0.32124969  0.00167770    -0.12250
C578        C  0.92783952  0.32979869  0.96363195     0.04760
C579        C  0.90514235  0.37331683  0.95328787    -0.07530
C580        C  0.88146318  0.40076039  0.98107204    -0.08280
C581        C  0.88422895  0.38820670  0.01891221    -0.02830
C582        C  0.91548429  0.35067704  0.02927224     0.03990
N583        N  0.92748060  0.34168034  0.06765029     0.66490
H584        H  0.95642859  0.29083442  0.01022746     0.15390
H585        H  0.86040378  0.43154901  0.97313244     0.15100
N586        N  0.90632535  0.39057318  0.91558539     0.74200
O587        O  0.93382971  0.29916548  0.07861703    -0.39250
O588        O  0.93854853  0.37624770  0.08913126    -0.39190
O589        O  0.87286238  0.41634531  0.90358564    -0.39900
O590        O  0.94494766  0.38986242  0.89770505    -0.39970
C591        C  0.86146855  0.06925399  0.97801244    -0.12250
C592        C  0.89342948  0.10581197  0.98883266     0.04760
C593        C  0.89761942  0.11782060  0.02721660    -0.07530
C594        C  0.86698162  0.09550006  0.05309294    -0.08280
C595        C  0.83200518  0.06233323  0.04127423    -0.02830
C596        C  0.83108106  0.04734823  0.00347351     0.03990
N597        N  0.79926065  0.01026323  0.99029543     0.66490
H598        H  0.85934747  0.05813674  0.94896494     0.15390
H599        H  0.86813248  0.10676794  0.08210346     0.15100
N600        N  0.93000685  0.15431094  0.04026304     0.74200
O601        O  0.77947337  0.01380742  0.95877915    -0.39250
O602        O  0.79490775  0.97161502  0.00817949    -0.39190
O603        O  0.93261006  0.19417148  0.02387930    -0.39900
O604        O  0.95085626  0.14947952  0.07122418    -0.39970
C605        C  0.81987765  0.08710980  0.75596328    -0.12250
C606        C  0.84083198  0.07664383  0.72174996     0.04760
C607        C  0.88789471  0.09428537  0.71545353    -0.07530
C608        C  0.90961181  0.12596378  0.74159417    -0.08280
C609        C  0.88861954  0.13611995  0.77623904    -0.02830
C610        C  0.84544362  0.11091206  0.78458458     0.03990
N611        N  0.83161301  0.10014398  0.82210364     0.66490
H612        H  0.78579159  0.07075319  0.76205117     0.15390
H613        H  0.94473306  0.14010282  0.73575412     0.15100
N614        N  0.91570735  0.07837877  0.68419711     0.74200
O615        O  0.78837749  0.09171350  0.82887664    -0.39250
O616        O  0.86224241  0.08274650  0.84385610    -0.39190
O617        O  0.90680904  0.09368496  0.65195472    -0.39900
O618        O  0.95512818  0.05824675  0.69004775    -0.39970
C619        C  0.87876927  0.06462166  0.47601698    -0.12250
C620        C  0.87447819  0.08273632  0.51275922     0.04760
C621        C  0.89541033  0.12814906  0.52107293    -0.07530
C622        C  0.91931807  0.15327003  0.49388264    -0.08280
C623        C  0.91904132  0.13870362  0.45643626    -0.02830
C624        C  0.90015043  0.09239924  0.44744382     0.03990
N625        N  0.90257327  0.07250132  0.41034341     0.66490
H626        H  0.86396418  0.02963125  0.46914859     0.15390
H627        H  0.93555597  0.18702126  0.50235992     0.15100
N628        N  0.88930425  0.15227524  0.55621076     0.74200
O629        O  0.91384944  0.02892882  0.40578387    -0.39250
O630        O  0.88532076  0.09504114  0.38314165    -0.39190
O631        O  0.92515758  0.16222428  0.57608163    -0.39900
O632        O  0.85023776  0.17274236  0.56301897    -0.39970
C633        C  0.64378986  0.12521808  0.48368916    -0.12250
C634        C  0.59729132  0.10730620  0.48051158     0.04760
C635        C  0.58093093  0.07288168  0.50645946    -0.07530
C636        C  0.61259606  0.05656559  0.53427497    -0.08280
C637        C  0.65991022  0.07297347  0.53596943    -0.02830
C638        C  0.67508365  0.10906175  0.51113900     0.03990
N639        N  0.72188537  0.13003932  0.51355852     0.66490
H640        H  0.65586061  0.15252674  0.46446481     0.15390
H641        H  0.60129760  0.02857038  0.55313295     0.15100
N642        N  0.53415187  0.05187022  0.50373342     0.74200
O643        O  0.74203359  0.14559057  0.48461235    -0.39250
O644        O  0.74050129  0.13889115  0.54497485    -0.39190
O645        O  0.51409691  0.04639743  0.47241510    -0.39900
O646        O  0.51491254  0.03377294  0.53216969    -0.39970
C647        C  0.62511366  0.40384121  0.96491533    -0.12250
C648        C  0.58854626  0.37201792  0.97554859     0.04760
C649        C  0.58114135  0.36441951  0.01421019    -0.07530
C650        C  0.61459005  0.38293514  0.04016745    -0.08280
C651        C  0.65353362  0.41106456  0.02868313    -0.02830
C652        C  0.65677223  0.42413587  0.99082080     0.03990
N653        N  0.69132916  0.45855504  0.97821938     0.66490
H654        H  0.62960583  0.41283180  0.93579490     0.15390
H655        H  0.61049368  0.37484269  0.06948590     0.15100
N656        N  0.54046395  0.33855851  0.02771282     0.74200
O657        O  0.71045695  0.45354230  0.94655222    -0.39250
O658        O  0.69762289  0.49738519  0.99618756    -0.39190
O659        O  0.49954571  0.34909910  0.01592034    -0.39900
O660        O  0.54396508  0.31330169  0.05667039    -0.39970
C661        C  0.57900756  0.10084611  0.95799736    -0.12250
C662        C  0.58605233  0.15087714  0.96116790     0.05080
C663        C  0.61569275  0.16881882  0.98994624    -0.07530
C664        C  0.63495944  0.13740642  0.01592020    -0.08280
C665        C  0.62554985  0.08779305  0.01454283    -0.02830
C666        C  0.59869357  0.06889728  0.98423390     0.03990
N667        N  0.58956814  0.01828274  0.98021903     0.66490
H668        H  0.55734503  0.08661535  0.93540899     0.15390
H669        H  0.65667572  0.15237076  0.03823884     0.15100
N670        N  0.62705942  0.21890723  0.99322412     0.74200
O671        O  0.54921492  0.00382969  0.96938561    -0.39250
O672        O  0.62369423  0.98894974  0.98035289    -0.39190
O673        O  0.59781263  0.24709931  0.00858486    -0.39900
O674        O  0.66950537  0.23252968  0.98896279    -0.39970
C675        C  0.72842230  0.28941836  0.86394048    -0.12250
C676        C  0.69555998  0.25241729  0.85930102     0.04760
C677        C  0.71102238  0.20384502  0.85810796    -0.07530
C678        C  0.75801962  0.19347718  0.86617953    -0.08280
C679        C  0.79132005  0.22998884  0.87077233    -0.02830
C680        C  0.77623160  0.27879090  0.86959583     0.03990
N681        N  0.80798752  0.31795609  0.87687960     0.66490
H682        H  0.71665278  0.32648102  0.86546417     0.15390
H683        H  0.76870811  0.15654545  0.86848336     0.15100
N684        N  0.67951157  0.16471866  0.84853899     0.74200
O685        O  0.81307170  0.35045643  0.85286728    -0.39250
O686        O  0.82202202  0.32546570  0.90989760    -0.39190
O687        O  0.65186663  0.16814174  0.82089670    -0.39900
O688        O  0.68305098  0.12485727  0.86486061    -0.39970
C689        C  0.78323939  0.26768288  0.63546271    -0.12250
C690        C  0.73441730  0.27960002  0.63546221     0.04760
C691        C  0.70068098  0.24348646  0.64213651    -0.07530
C692        C  0.71612401  0.19612162  0.64482169    -0.08280
C693        C  0.76451782  0.18364065  0.64046157    -0.02830
C694        C  0.79880305  0.22038451  0.63883773     0.03990
N695        N  0.84887940  0.21109724  0.64139254     0.66490
H696        H  0.81002909  0.29559444  0.63343018     0.15390
H697        H  0.68932441  0.16844581  0.64827840     0.15100
N698        N  0.65082432  0.25347602  0.64475638     0.74200
O699        O  0.87783910  0.23718894  0.62381560    -0.39250
O700        O  0.86437061  0.18600289  0.66785383    -0.39190
O701        O  0.62923204  0.27146726  0.61735328    -0.39900
O702        O  0.62701699  0.23648602  0.67142580    -0.39970
C703        C  0.60648470  0.38812826  0.72845837    -0.12250
C704        C  0.65588792  0.37953148  0.72574724     0.04760
C705        C  0.67333166  0.33710955  0.74278579    -0.07530
C706        C  0.64174748  0.30606200  0.76208964    -0.08280
C707        C  0.59259768  0.31559721  0.76530624    -0.02830
C708        C  0.57482533  0.35672651  0.74688218     0.03990
N709        N  0.52455396  0.36646810  0.74539884     0.66490
H710        H  0.59160353  0.41896058  0.71448334     0.15390
H711        H  0.65641240  0.27545855  0.77653657     0.15100
N712        N  0.72287833  0.32511527  0.74156716     0.74200
O713        O  0.50988676  0.40843397  0.73886237    -0.39250
O714        O  0.49486648  0.33232695  0.74549778    -0.39190
O715        O  0.75367315  0.35600568  0.75107981    -0.39900
O716        O  0.73540506  0.28188093  0.73705948    -0.39970
C717        C  0.88101168  0.41010925  0.47849178    -0.12250
C718        C  0.89672815  0.36252595  0.48277862     0.04760
C719        C  0.88470791  0.33790209  0.51569609    -0.07530
C720        C  0.85691285  0.36086421  0.54319846    -0.08280
C721        C  0.83888876  0.40733469  0.53781043    -0.02830
C722        C  0.85241757  0.43301251  0.50558590     0.03990
N723        N  0.83758122  0.48199496  0.49993572     0.66490
H724        H  0.89035476  0.42917375  0.45331668     0.15390
H725        H  0.84577755  0.34067395  0.56739177     0.15100
N726        N  0.89469710  0.28778487  0.51932222     0.74200
O727        O  0.83599778  0.49904844  0.46742407    -0.39250
O728        O  0.83095794  0.50991927  0.52746116    -0.39190
O729        O  0.91163884  0.27215821  0.54946837    -0.39900
O730        O  0.87759579  0.25844618  0.49575033    -0.39970
C731        C  0.64753119  0.37392112  0.48481072    -0.12250
C732        C  0.62010754  0.38756724  0.51580577     0.04760
C733        C  0.57454916  0.36684199  0.52073266    -0.07530
C734        C  0.55923384  0.33042557  0.49612238    -0.08280
C735        C  0.58655481  0.31650251  0.46527377    -0.02830
C736        C  0.63147321  0.33812494  0.45969183     0.03990
N737        N  0.66355324  0.31977218  0.43196600     0.66490
H738        H  0.68342345  0.38774767  0.48218083     0.15390
H739        H  0.52510419  0.31341464  0.50056737     0.15100
N740        N  0.54373612  0.38227984  0.55066659     0.74200
O741        O  0.69106916  0.34808607  0.41507091    -0.39250
O742        O  0.67178066  0.27521102  0.43054285    -0.39190
O743        O  0.54580285  0.42494542  0.56300603    -0.39900
O744        O  0.51072832  0.35520821  0.56190711    -0.39970
C745        C  0.10373879  0.01142902  0.86167694    -0.12250
C746        C  0.14633998  0.03676299  0.85534621     0.04760
C747        C  0.14589375  0.08734698  0.85601440    -0.07530
C748        C  0.10359928  0.11102359  0.86580045    -0.08280
C749        C  0.06199752  0.08577710  0.87611022    -0.02830
C750        C  0.06186304  0.03508094  0.87292381     0.03990
N751        N  0.02167409  0.00673546  0.88409473     0.66490
H752        H  0.10437308  0.97247542  0.86193150     0.15390
H753        H  0.10358957  0.14997561  0.86632675     0.15100
N754        N  0.18809776  0.11499415  0.84797760     0.74200
O755        O  0.01120858  0.96884795  0.86612239    -0.39250
O756        O  0.00259417  0.01412121  0.91550919    -0.39190
O757        O  0.22218971  0.09640534  0.83010711    -0.39900
O758        O  0.18997658  0.15928288  0.85605380    -0.39970
C759        C  0.42118271  0.05576758  0.86265825    -0.12250
C760        C  0.37547524  0.06140994  0.87797041     0.04760
C761        C  0.35883968  0.10900581  0.88484457    -0.07530
C762        C  0.38743758  0.14857644  0.87601005    -0.08280
C763        C  0.43346830  0.14291305  0.86204832    -0.02830
C764        C  0.45058603  0.09572660  0.85506883     0.03990
N765        N  0.49862331  0.08740582  0.84306320     0.66490
H766        H  0.43461139  0.01993072  0.85711187     0.15390
H767        H  0.37496030  0.18438618  0.88313466     0.15100
N768        N  0.31471249  0.11838717  0.90352013     0.74200
O769        O  0.52195762  0.05275797  0.85623204    -0.39250
O770        O  0.51570077  0.11049589  0.81605244    -0.39190
O771        O  0.30905678  0.10438352  0.93664043    -0.39900
O772        O  0.28687689  0.14969530  0.89072857    -0.39970
C773        C  0.10512488  0.87644181  0.94949189    -0.12250
C774        C  0.13879216  0.91147948  0.96011980     0.04760
C775        C  0.13842486  0.92918458  0.99721902    -0.07530
C776        C  0.10942832  0.90677177  0.02364963    -0.08280
C777        C  0.08007244  0.86731963  0.01425374    -0.02830
C778        C  0.07651364  0.85325281  0.97623716     0.03990
N779        N  0.04768776  0.81318797  0.96457857     0.66490
H780        H  0.10398853  0.86410997  0.92076125     0.15390
H781        H  0.11063060  0.91972598  0.05225759     0.15100
N782        N  0.16694203  0.96994152  0.00846002     0.74200
O783        O  0.02437110  0.81540524  0.93451367    -0.39250
O784        O  0.05285332  0.77289788  0.97991486    -0.39190
O785        O  0.17154123  0.00539058  0.98699967    -0.39900
O786        O  0.18264891  0.97329383  0.04143182    -0.39970
C787        C  0.40885439  0.87598883  0.97734950    -0.12250
C788        C  0.36316088  0.89387213  0.98515762     0.04760
C789        C  0.34280777  0.88470161  0.02050155    -0.07530
C790        C  0.36775925  0.85601961  0.04615541    -0.08280
C791        C  0.41153999  0.83491254  0.03675300    -0.02830
C792        C  0.43336203  0.84675954  0.00259441     0.03990
N793        N  0.47990168  0.82903312  0.99296366     0.66490
H794        H  0.42489013  0.88356750  0.95055999     0.15390
H795        H  0.35087517  0.84654497  0.07224125     0.15100
N796        N  0.29540531  0.89975017  0.02951924     0.74200
O797        O  0.49166228  0.82383615  0.95915344    -0.39250
O798        O  0.51099807  0.82308922  0.01793964    -0.39190
O799        O  0.26192311  0.89166311  0.00684029    -0.39900
O800        O  0.28550767  0.91274885  0.06247456    -0.39970
C801        C  0.61620074  0.84493653  0.62035469    -0.12250
C802        C  0.57232561  0.86945503  0.62312113     0.04760
C803        C  0.57319788  0.91909173  0.63230636    -0.07530
C804        C  0.61710859  0.94300768  0.63589789    -0.08280
C805        C  0.66044588  0.91879293  0.63091658    -0.02830
C806        C  0.66016786  0.86883266  0.62394565     0.03990
N807        N  0.70380194  0.84209385  0.61992045     0.66490
H808        H  0.61638958  0.80663709  0.61459577     0.15390
H809        H  0.61734682  0.98155431  0.64082107     0.15100
N810        N  0.53036401  0.94641073  0.63634542     0.74200
O811        O  0.70374973  0.80132553  0.60404342    -0.39250
O812        O  0.74185544  0.85714604  0.63474850    -0.39190
O813        O  0.50213054  0.93720960  0.66269291    -0.39900
O814        O  0.52565127  0.98524481  0.61879535    -0.39970
C815        C  0.59310562  0.64646703  0.63663389    -0.12250
C816        C  0.54396436  0.64170981  0.63460963     0.04760
C817        C  0.52362963  0.59522079  0.63019080    -0.07530
C818        C  0.55355072  0.55525613  0.62476756    -0.08280
C819        C  0.60317721  0.56032439  0.62502919    -0.02830
C820        C  0.62280013  0.60628437  0.63341057     0.03990
N821        N  0.67259912  0.61281980  0.63979517     0.66490
H822        H  0.60845664  0.68196232  0.64061527     0.15390
H823        H  0.53789990  0.52016719  0.61957795     0.15100
N824        N  0.47298843  0.58812693  0.62958896     0.74200
O825        O  0.69220930  0.65183640  0.63067610    -0.39250
O826        O  0.69424058  0.58458030  0.66127821    -0.39190
O827        O  0.45485256  0.55600600  0.60879798    -0.39900
O828        O  0.44705518  0.60900279  0.65344232    -0.39970
C829        C  0.39603509  0.86363768  0.73297558    -0.12250
C830        C  0.38421981  0.81509338  0.72529641     0.04760
C831        C  0.34104876  0.79742188  0.74069296    -0.07530
C832        C  0.31155967  0.82839523  0.76231751    -0.08280
C833        C  0.32375560  0.87684092  0.76979288    -0.02830
C834        C  0.36659458  0.89450962  0.75417263     0.03990
N835        N  0.38046456  0.94409864  0.75881400     0.66490
H836        H  0.42795824  0.87879115  0.72093603     0.15390
H837        H  0.27998695  0.81357726  0.77516278     0.15100
N838        N  0.32688992  0.74812708  0.73563672     0.74200
O839        O  0.42389934  0.95547199  0.76059090    -0.39250
O840        O  0.34979353  0.97703271  0.75682243    -0.39190
O841        O  0.35629378  0.71484487  0.74147915    -0.39900
O842        O  0.28350301  0.73758344  0.73155720    -0.39970
C843        C  0.40999040  0.87693965  0.48250682    -0.12250
C844        C  0.38972940  0.85742421  0.51485900     0.04760
C845        C  0.33958180  0.85746782  0.51808699    -0.07530
C846        C  0.31138938  0.87851536  0.49125283    -0.08280
C847        C  0.33088256  0.90028297  0.45995089    -0.02830
C848        C  0.38092718  0.89798532  0.45473214     0.03990
N849        N  0.40273555  0.91634543  0.42177148     0.66490
H850        H  0.44821415  0.87634289  0.47897811     0.15390
H851        H  0.27321500  0.87797386  0.49549519     0.15100
N852        N  0.31588458  0.83708728  0.54925082     0.74200
O853        O  0.43832927  0.94389078  0.42456366    -0.39250
O854        O  0.39356689  0.89667598  0.39068475    -0.39190
O855        O  0.30378752  0.86455911  0.57578963    -0.39900
O856        O  0.29604876  0.79660138  0.54547953    -0.39970
C857        C  0.38451688  0.60455856  0.53612430    -0.12250
C858        C  0.41408486  0.64321254  0.52601671     0.04760
C859        C  0.42604822  0.64859347  0.48797991    -0.07530
C860        C  0.40389380  0.61942513  0.46098843    -0.08280
C861        C  0.37150851  0.58282472  0.47047571    -0.02830
C862        C  0.36422758  0.57329678  0.50895965     0.03990
N863        N  0.33663332  0.53287349  0.52118867     0.66490
H864        H  0.37663076  0.59903548  0.56534150     0.15390
H865        H  0.41230918  0.62553682  0.43192874     0.15100
N866        N  0.46117517  0.68290686  0.47620257     0.74200
O867        O  0.31210555  0.53634480  0.55058575    -0.39250
O868        O  0.34524901  0.49150755  0.50809207    -0.39190
O869        O  0.50048507  0.68594756  0.49313832    -0.39900
O870        O  0.45588120  0.70512386  0.44592606    -0.39970
C871        C  0.07228051  0.39448732  0.85644820    -0.12250
C872        C  0.10529000  0.39715094  0.88593082     0.04760
C873        C  0.11828757  0.35430066  0.90428274    -0.07530
C874        C  0.09983740  0.31031361  0.89178539    -0.08280
C875        C  0.06368484  0.30772387  0.86472787    -0.02830
C876        C  0.05101727  0.35032336  0.84575632     0.03990
N877        N  0.01613721  0.34974076  0.81644007     0.66490
H878        H  0.06344049  0.42680902  0.84134123     0.15390
H879        H  0.10925012  0.27819343  0.90699198     0.15100
N880        N  0.14687829  0.35510868  0.93767902     0.74200
O881        O  0.98846302  0.38498759  0.81249409    -0.39250
O882        O  0.01795916  0.31796641  0.79105284    -0.39190
O883        O  0.13926997  0.38640054  0.96276847    -0.39900
O884        O  0.17389622  0.32025577  0.94494587    -0.39970
C885        C  0.36684054  0.34424994  0.88514361    -0.12250
C886        C  0.40948294  0.36483199  0.87192208     0.04760
C887        C  0.40671586  0.40780900  0.85111959    -0.07530
C888        C  0.36231821  0.42991318  0.84602178    -0.08280
C889        C  0.32062772  0.41043284  0.86120847    -0.02830
C890        C  0.32270916  0.36639441  0.88016559     0.03990
N891        N  0.28061004  0.34466714  0.89558328     0.66490
H892        H  0.36769112  0.31083665  0.90036354     0.15390
H893        H  0.36078547  0.46429840  0.83210739     0.15100
N894        N  0.44812812  0.43014487  0.83562345     0.74200
O895        O  0.24075242  0.35010164  0.87997188    -0.39250
O896        O  0.28357117  0.31714291  0.92330380    -0.39190
O897        O  0.47496273  0.40633773  0.81422210    -0.39900
O898        O  0.45298690  0.47525641  0.83753686    -0.39970
C899        C  0.19512873  0.70946939  0.88057007    -0.12250
C900        C  0.22303677  0.67995881  0.85820904     0.04760
C901        C  0.26561071  0.69771882  0.84221152    -0.07530
C902        C  0.27935409  0.74513104  0.84953112    -0.08280
C903        C  0.25158747  0.77480223  0.87233441    -0.02830
C904        C  0.20948162  0.75622201  0.88888726     0.03990
N905        N  0.18152403  0.78353651  0.91505350     0.66490
H906        H  0.16403358  0.69474681  0.89425424     0.15390
H907        H  0.31074085  0.75942084  0.83603236     0.15100
N908        N  0.29510378  0.66813139  0.81860634     0.74200
O909        O  0.13699012  0.77795254  0.91581599    -0.39250
O910        O  0.20158351  0.80640706  0.94135494    -0.39190
O911        O  0.27663469  0.63872701  0.79570726    -0.39900
O912        O  0.33962905  0.67394827  0.81852328    -0.39970
C913        C  0.07327832  0.57734769  0.99170225    -0.12250
C914        C  0.12201850  0.58359874  0.98498349     0.04760
C915        C  0.14725353  0.62032847  0.00424213    -0.07530
C916        C  0.12297624  0.64914079  0.03030280    -0.08280
C917        C  0.07402163  0.64382656  0.03626747    -0.02830
C918        C  0.04850412  0.60729308  0.01693544     0.03990
N919        N  0.99775237  0.60139111  0.02097489     0.66490
H920        H  0.05411124  0.55001266  0.97595864     0.15390
H921        H  0.14193132  0.67786746  0.04466682     0.15100
N922        N  0.19649878  0.63066406  0.99648985     0.74200
O923        O  0.97403300  0.57959809  0.99603403    -0.39250
O924        O  0.97645210  0.61600542  0.04990016    -0.39190
O925        O  0.21214321  0.62858106  0.96350918    -0.39900
O926        O  0.22270203  0.64873124  0.02164325    -0.39970
C927        C  0.33603895  0.61892247  0.95550622    -0.12250
C928        C  0.33734924  0.56883274  0.95086434     0.04760
C929        C  0.37039506  0.54159134  0.97156910    -0.07530
C930        C  0.39975466  0.56535358  0.99781157    -0.08280
C931        C  0.39679906  0.61521217  0.00373973    -0.02830
C932        C  0.36466730  0.64244197  0.98219350     0.03990
N933        N  0.35788477  0.69307076  0.98887721     0.66490
H934        H  0.30998293  0.63946932  0.94012789     0.15390
H935        H  0.42384942  0.54462484  0.01487745     0.15100
N936        N  0.37315845  0.49003367  0.96761875     0.74200
O937        O  0.34862628  0.72046488  0.96195528    -0.39250
O938        O  0.35349886  0.70912050  0.02178903    -0.39190
O939        O  0.36474103  0.46977787  0.93660291    -0.39900
O940        O  0.38814876  0.46483558  0.99426453    -0.39970
C941        C  0.86777319  0.85448849  0.59460690    -0.12250
C942        C  0.88271167  0.89747939  0.61210102     0.04760
C943        C  0.92163083  0.89563926  0.63710769    -0.07530
C944        C  0.94547104  0.85185699  0.64262760    -0.08280
C945        C  0.93157720  0.80923009  0.62393984    -0.02830
C946        C  0.89164698  0.81104789  0.59985177     0.03990
N947        N  0.87630970  0.77008852  0.57845372     0.66490
H948        H  0.83800116  0.85466192  0.57538640     0.15390
H949        H  0.97582306  0.85156091  0.66125253     0.15100
N950        N  0.93665663  0.93712410  0.65805753     0.74200
O951        O  0.83652343  0.75115347  0.58537398    -0.39250
O952        O  0.89659279  0.76044581  0.54786767    -0.39190
O953        O  0.90816411  0.95669108  0.68067151    -0.39900
O954        O  0.98032232  0.94732599  0.66026753    -0.39970
C955        C  0.87651046  0.51751668  0.64230025    -0.12250
C956        C  0.83412873  0.54397640  0.63974909     0.04760
C957        C  0.83676739  0.59250684  0.62928346    -0.07530
C958        C  0.88028844  0.61267040  0.61904049    -0.08280
C959        C  0.92221475  0.58569596  0.61944088    -0.02830
C960        C  0.92062184  0.53752242  0.63190359     0.03990
N961        N  0.96203955  0.50727979  0.63121049     0.66490
H962        H  0.87463942  0.47959890  0.64887204     0.15390
H963        H  0.88142778  0.65022107  0.61120524     0.15100
N964        N  0.79592686  0.62261673  0.63091323     0.74200
O965        O  0.96581951  0.47325049  0.65407463    -0.39250
O966        O  0.99139033  0.50992264  0.60467361    -0.39190
O967        O  0.77887731  0.63271861  0.66258277    -0.39900
O968        O  0.78633579  0.64926879  0.60361662    -0.39970
C969        C  0.20381898  0.75482497  0.60938790    -0.12250
C970        C  0.19702837  0.70490330  0.60308952     0.04760
C971        C  0.23590705  0.67379106  0.60561570    -0.07530
C972        C  0.27990017  0.69340332  0.61456725    -0.08280
C973        C  0.28723281  0.74344682  0.62039612    -0.02830
C974        C  0.24779663  0.77422917  0.62000936     0.03990
N975        N  0.25036043  0.82351462  0.63248455     0.66490
H976        H  0.17329090  0.77839952  0.60971057     0.15390
H977        H  0.30928844  0.66846801  0.61654540     0.15100
N978        N  0.23145486  0.62237466  0.60171624     0.74200
O979        O  0.22112068  0.85385459  0.62011691    -0.39250
O980        O  0.27479589  0.83462269  0.66088242    -0.39190
O981        O  0.20402213  0.60444488  0.57751994    -0.39900
O982        O  0.26014152  0.59492526  0.61822104    -0.39970
C983        C  0.17111865  0.60000562  0.74798958    -0.12250
C984        C  0.14472611  0.57297666  0.77330167     0.04760
C985        C  0.09458429  0.58112787  0.77479547    -0.07530
C986        C  0.07252790  0.61218751  0.74890792    -0.08280
C987        C  0.09931942  0.63839715  0.72314224    -0.02830
C988        C  0.14955973  0.63302621  0.72398000     0.03990
N989        N  0.17958079  0.66052269  0.69995163     0.66490
H990        H  0.20942378  0.59627874  0.74729684     0.15390
H991        H  0.03413043  0.61499392  0.74839750     0.15100
N992        N  0.06552801  0.55989111  0.80305017     0.74200
O993        O  0.17662277  0.70578079  0.70048776    -0.39250
O994        O  0.21549500  0.64104711  0.68517918    -0.39190
O995        O  0.07125824  0.57265750  0.83668606    -0.39900
O996        O  0.02765435  0.53839099  0.79383386    -0.39970
C997        C  0.11134702  0.59188740  0.43624252    -0.12250
C998        C  0.15338116  0.57054126  0.44975741     0.04760
C999        C  0.16073679  0.56883931  0.48869192    -0.07530
C1000       C  0.12599730  0.58596024  0.51279129    -0.08280
C1001       C  0.08536055  0.60924718  0.49976640    -0.02830
C1002       C  0.07716650  0.61189885  0.46084939     0.03990
N1003       N  0.03409223  0.63213196  0.44595869     0.66490
H1004       H  0.10514408  0.59293235  0.40644554     0.15390
H1005       H  0.13183735  0.58269288  0.54243279     0.15100
N1006       N  0.20429137  0.55213097  0.50453088     0.74200
O1007       O  0.03220519  0.64486796  0.41225746    -0.39250
O1008       O  0.99638202  0.63272559  0.46501836    -0.39190
O1009       O  0.24064026  0.57879009  0.50327615    -0.39900
O1010       O  0.20393952  0.51661661  0.52617175    -0.39970
C1011       C  0.06297673  0.86542512  0.53291963    -0.12250
C1012       C  0.08678269  0.82220004  0.54056423     0.04760
C1013       C  0.13086854  0.81308912  0.52286197    -0.07530
C1014       C  0.14987292  0.84739602  0.49846855    -0.08280
C1015       C  0.12558124  0.88981462  0.48962838    -0.02830
C1016       C  0.08154365  0.89949217  0.50752662     0.03990
N1017       N  0.05433534  0.94203215  0.49936070     0.66490
H1018       H  0.02923277  0.87219858  0.54649610     0.15390
H1019       H  0.18256481  0.83914015  0.48376846     0.15100
N1020       N  0.15491914  0.76772213  0.52654395     0.74200
O1021       O  0.01075414  0.94403487  0.50760572    -0.39250
O1022       O  0.07412713  0.97908177  0.48647261    -0.39190
O1023       O  0.13142883  0.72906502  0.52788013    -0.39900
O1024       O  0.19933556  0.76536345  0.52195397    -0.39970
loop_ 
_geom_bond_atom_site_label_1 
_geom_bond_atom_site_label_2 
_geom_bond_distance 
_geom_bond_site_symmetry_2 
_ccdc_geom_bond_type 
O1          Cr19   2.024   1_655  S
O1            C9   1.279       .  A
O2          Cr19   1.967   1_655  S
O2            C3   1.258       .  A
C3            O4   1.265   1_655  A
C3          C945   1.493       .  S
O4          Cr20   1.999       .  S
O5          Cr20   2.046       .  S
O5            C6   1.280       .  A
C6            O7   1.253       .  A
C6          C987   1.494       .  S
O7          Cr21   1.964       .  S
O8          Cr21   1.974       .  S
O8            C9   1.269   1_455  A
C9          C959   1.479       .  S
O10         Cr19   2.010       .  S
O10          C18   1.253       .  A
O11         Cr19   2.009       .  S
O11          C12   1.265       .  A
C12          O13   1.264       .  A
C12        C1012   1.491       .  S
O13         Cr20   2.001       .  S
O14         Cr20   1.944       .  S
O14          C15   1.255       .  A
C15          O16   1.273       .  A
C15         C970   1.459       .  S
O16         Cr21   2.007       .  S
O17         Cr21   1.974       .  S
O17          C18   1.245       .  A
C18        C1001   1.476       .  S
Cr19         O22   1.775       .  S
Cr20         O22   1.777       .  S
Cr21         O22   1.773       .  S
O23         Cr41   1.945       .  S
O23          C31   1.256       .  A
O24         Cr41   2.000       .  S
O24          C25   1.268       .  A
C25          O26   1.265       .  A
C25         C889   1.469       .  S
O26         Cr42   1.972       .  S
O27         Cr42   2.049       .  S
O27          C28   1.270       .  A
C28          O29   1.243       .  A
C28         C984   1.507       .  S
O29         Cr43   1.947       .  S
O30         Cr43   2.031       .  S
O30          C31   1.274       .  A
C31         C872   1.486       .  S
O32         Cr41   2.022       .  S
O32          C40   1.264       .  A
O33         Cr41   1.974       .  S
O33          C34   1.262       .  A
C34          O35   1.270       .  A
C34         C928   1.474       .  S
O35         Cr42   2.029       .  S
O36         Cr42   1.908       .  S
O36          C37   1.248       .  A
C37          O38   1.275       .  A
C37         C900   1.449       .  S
O38         Cr43   2.035       .  S
O39         Cr43   1.950       .  S
O39          C40   1.248       .  A
C40         C914   1.471       .  S
Cr41         O44   1.764       .  S
Cr42         O44   1.779       .  S
Cr43         O44   1.773       .  S
O45         Cr63   1.958       .  S
O45          C53   1.260       .  A
O46         Cr63   2.034       .  S
O46          C47   1.279       .  A
C47          O48   1.267       .  A
C47         C816   1.472       .  S
O48         Cr64   1.960       .  S
O49         Cr64   2.077       .  S
O49          C50   1.272       .  A
C50          O51   1.248       .  A
C50         C830   1.520       .  S
O51         Cr65   1.955       .  S
O52         Cr65   2.034       .  S
O52          C53   1.274       .  A
C53         C802   1.500       .  S
O54         Cr63   2.041       .  S
O54          C62   1.270       .  A
O55         Cr63   1.975       .  S
O55          C56   1.256       .  A
C56          O57   1.266       .  A
C56         C858   1.492       .  S
O57         Cr64   2.035       .  S
O58         Cr64   1.886       .  S
O58          C59   1.240       .  A
C59          O60   1.280       .  A
C59         C973   1.478       .  S
O60         Cr65   2.080       .  S
O61         Cr65   1.925       .  S
O61          C62   1.248       .  A
C62         C844   1.492       .  S
Cr63         O66   1.759       .  S
Cr64         O66   1.764       .  S
Cr65         O66   1.769       .  S
O67         Cr85   1.957   1_545  S
O67          C75   1.256       .  A
O68         Cr85   2.011   1_545  S
O68          C69   1.271       .  A
C69          O70   1.267   1_545  A
C69         C746   1.473       .  S
O70         Cr86   1.974       .  S
O71         Cr86   2.068       .  S
O71          C72   1.273       .  A
C72          O73   1.251       .  A
C72         C833   1.511       .  S
O73         Cr87   1.955       .  S
O74         Cr87   2.041       .  S
O74          C75   1.275   1_565  A
C75         C760   1.501       .  S
O76         Cr85   2.044       .  S
O76          C84   1.270       .  A
O77         Cr85   1.970       .  S
O77          C78   1.261       .  A
C78          O79   1.269       .  A
C78         C774   1.487       .  S
O79         Cr86   2.032       .  S
O80         Cr86   1.909       .  S
O80          C81   1.246       .  A
C81          O82   1.276       .  A
C81         C903   1.464       .  S
O82         Cr87   2.037       .  S
O83         Cr87   1.945       .  S
O83          C84   1.249       .  A
C84         C788   1.486       .  S
Cr85         O88   1.763       .  S
Cr86         O88   1.778       .  S
Cr87         O88   1.770       .  S
O89        Cr107   1.967       .  S
O89          C97   1.260       .  A
O90        Cr107   2.015       .  S
O90          C91   1.273       .  A
C91          O92   1.270       .  A
C91         C956   1.480       .  S
O92        Cr108   1.981       .  S
O93        Cr108   2.083       .  S
O93          C94   1.274       .  A
C94          O95   1.248       .  A
C94         C704   1.524       .  S
O95        Cr109   1.952       .  S
O96        Cr109   2.022       .  S
O96          C97   1.271       .  A
C97         C819   1.493       .  S
O98        Cr107   2.030       .  S
O98         C106   1.269       .  A
O99        Cr107   1.983       .  S
O99         C100   1.262       .  A
C100        O101   1.268       .  A
C100        C721   1.484       .  S
O101       Cr108   2.025       .  S
O102       Cr108   1.917       .  S
O102        C103   1.247       .  A
C103        O104   1.273       .  A
C103        C690   1.470       .  S
O104       Cr109   2.045       .  S
O105       Cr109   1.942       .  S
O105        C106   1.251       .  A
C106        C732   1.474       .  S
Cr107       O110   1.767       .  S
Cr108       O110   1.774       .  S
Cr109       O110   1.771       .  S
O111       Cr129   1.947       .  S
O111        C119   1.258       .  A
O112       Cr129   2.018       .  S
O112        C113   1.274       .  A
C113        O114   1.269       .  A
C113        C763   1.482       .  S
O114       Cr130   1.979       .  S
O115       Cr130   2.072       .  S
O115        C116   1.273       .  A
C116        O117   1.251       .  A
C116        C707   1.515       .  S
O117       Cr131   1.957       .  S
O118       Cr131   2.034       .  S
O118        C119   1.275       .  A
C119        C886   1.494       .  S
O120       Cr129   2.035       .  S
O120        C128   1.267       .  A
O121       Cr129   1.968       .  S
O121        C122   1.258       .  A
C122        O123   1.268       .  A
C122        C662   1.484       .  S
O123       Cr130   2.030       .  S
O124       Cr130   1.905       .  S
O124        C125   1.244       .  A
C125        O126   1.274       .  A
C125        C676   1.456       .  S
O126       Cr131   2.045       .  S
O127       Cr131   1.946       .  S
O127        C128   1.251       .  A
C128        C648   1.499       .  S
Cr129       O132   1.758       .  S
Cr130       O132   1.768       .  S
Cr131       O132   1.770       .  S
O133       Cr151   1.956       .  S
O133        C141   1.260       .  A
O134       Cr151   2.024       .  S
O134        C135   1.273       .  A
C135        O136   1.265       .  A
C135        C805   1.475       .  S
O136       Cr152   1.969   1_565  S
O137       Cr152   2.072       .  S
O137        C138   1.275       .  A
C138        O139   1.241       .  A
C138        C606   1.503       .  S
O139       Cr153   1.932       .  S
O140       Cr153   2.034   1_565  S
O140        C141   1.275       .  A
C141        C942   1.493       .  S
O142       Cr151   2.051   1_545  S
O142        C150   1.270       .  A
O143       Cr151   1.968   1_545  S
O143        C144   1.261       .  A
C144        O145   1.271       .  A
C144        C637   1.481       .  S
O145       Cr152   2.037       .  S
O146       Cr152   1.913       .  S
O146        C147   1.248       .  A
C147        O148   1.272       .  A
C147        C693   1.474       .  S
O148       Cr153   2.055       .  S
O149       Cr153   1.917       .  S
O149        C150   1.244       .  A
C150        C620   1.498       .  S
Cr151       O154   1.767   1_565  S
Cr152       O154   1.773       .  S
Cr153       O154   1.760       .  S
O155       Cr173   1.940   1_455  S
O155        C163   1.256       .  A
O156       Cr173   1.985   1_455  S
O156        C157   1.269       .  A
C157        O158   1.270       .  A
C157        C875   1.487       .  S
O158       Cr174   1.986   1_455  S
O159       Cr174   2.099       .  S
O159        C160   1.280       .  A
C160        O161   1.240       .  A
C160        C609   1.511       .  S
O161       Cr175   1.943       .  S
O162       Cr175   2.041       .  S
O162        C163   1.277   1_655  A
C163        C749   1.494       .  S
O164       Cr173   2.039       .  S
O164        C172   1.265       .  A
O165       Cr173   1.964       .  S
O165        C166   1.266       .  A
C166        O167   1.273       .  A
C166        C578   1.493       .  S
O167       Cr174   2.039       .  S
O168       Cr174   1.909       .  S
O168        C169   1.239       .  A
C169        O170   1.274       .  A
C169        C679   1.469       .  S
O170       Cr175   2.040       .  S
O171       Cr175   1.938       .  S
O171        C172   1.246       .  A
C172        C592   1.486       .  S
Cr173       O176   1.759       .  S
Cr174       O176   1.778       .  S
Cr175       O176   1.753       .  S
O177       Cr195   2.029       .  S
O177        C185   1.274       .  A
O178       Cr195   1.946       .  S
O178        C179   1.245       .  A
C179        O180   1.275       .  A
C179        C564   1.507       .  S
O180       Cr196   2.077       .  S
O181       Cr196   1.981       .  S
O181        C182   1.269       .  A
C182        O183   1.274       .  A
C182        C536   1.489       .  S
O183       Cr197   2.008       .  S
O184       Cr197   1.948       .  S
O184        C185   1.258       .  A
C185        C522   1.489       .  S
O186       Cr195   1.940       .  S
O186        C194   1.247       .  A
O187       Cr195   2.039       .  S
O187        C188   1.271       .  A
C188        O189   1.247       .  A
C188        C553   1.470       .  S
O189       Cr196   1.914       .  S
O190       Cr196   2.028       .  S
O190        C191   1.270       .  A
C191        O192   1.266       .  A
C191        C651   1.487       .  S
O192       Cr197   1.980       .  S
O193       Cr197   2.044       .  S
O193        C194   1.268       .  A
C194        C581   1.489       .  S
Cr195       O198   1.759       .  S
Cr196       O198   1.770       .  S
Cr197       O198   1.758       .  S
O199       Cr217   2.031       .  S
O199        C207   1.274   1_655  A
O200       Cr217   1.953       .  S
O200        C201   1.243       .  A
C201        O202   1.271       .  A
C201        C567   1.505       .  S
O202       Cr218   2.072       .  S
O203       Cr218   1.980       .  S
O203        C204   1.271   1_655  A
C204        O205   1.271       .  A
C204        C483   1.477       .  S
O205       Cr219   2.008   1_455  S
O206       Cr219   1.948   1_455  S
O206        C207   1.259       .  A
C207        C494   1.498       .  S
O208       Cr217   1.953       .  S
O208        C216   1.248       .  A
O209       Cr217   2.040       .  S
O209        C210   1.278       .  A
C210        O211   1.248       .  A
C210        C508   1.468       .  S
O211       Cr218   1.912       .  S
O212       Cr218   2.038       .  S
O212        C213   1.265       .  A
C213        O214   1.260       .  A
C213        C623   1.495       .  S
O214       Cr219   1.953       .  S
O215       Cr219   2.030       .  S
O215        C216   1.266       .  A
C216        C718   1.488       .  S
Cr217       O220   1.772       .  S
Cr218       O220   1.793       .  S
Cr219       O220   1.762       .  S
O221       Cr239   2.014   1_565  S
O221        C229   1.269       .  A
O222       Cr239   1.953       .  S
O222        C223   1.250       .  A
C223        O224   1.274       .  A
C223        C469   1.514       .  S
O224       Cr240   2.064       .  S
O225       Cr240   1.980   1_565  S
O225        C226   1.268       .  A
C226        O227   1.270       .  A
C226        C438   1.478       .  S
O227       Cr241   2.005       .  S
O228       Cr241   1.950       .  S
O228        C229   1.258       .  A
C229        C452   1.488       .  S
O230       Cr239   1.953       .  S
O230        C238   1.253       .  A
O231       Cr239   2.023       .  S
O231        C232   1.268       .  A
C232        O233   1.251       .  A
C232        C550   1.453       .  S
O233       Cr240   1.918       .  S
O234       Cr240   2.034       .  S
O234        C235   1.270       .  A
C235        O236   1.260       .  A
C235        C595   1.483       .  S
O236       Cr241   1.964   1_545  S
O237       Cr241   2.025   1_545  S
O237        C238   1.264       .  A
C238        C665   1.486       .  S
Cr239       O242   1.768       .  S
Cr240       O242   1.776       .  S
Cr241       O242   1.759   1_565  S
O243       Cr261   2.030       .  S
O243        C251   1.276       .  A
O244       Cr261   1.955       .  S
O244        C245   1.248       .  A
C245        O246   1.270       .  A
C245        C466   1.503       .  S
O246       Cr262   2.058       .  S
O247       Cr262   1.986       .  S
O247        C248   1.267       .  A
C248        O249   1.266       .  A
C248        C427   1.482       .  S
O249       Cr263   2.001       .  S
O250       Cr263   1.955       .  S
O250        C251   1.258       .  A
C251        C413   1.497       .  S
O252       Cr261   1.956       .  S
O252        C260   1.251       .  A
O253       Cr261   2.036       .  S
O253        C254   1.274       .  A
C254        O255   1.246       .  A
C254        C511   1.453       .  S
O255       Cr262   1.902       .  S
O256       Cr262   2.029       .  S
O256        C257   1.273       .  A
C257        O258   1.263       .  A
C257        C735   1.479       .  S
O258       Cr263   1.978       .  S
O259       Cr263   2.021       .  S
O259        C260   1.263       .  A
C260        C634   1.479       .  S
Cr261       O264   1.769       .  S
Cr262       O264   1.775       .  S
Cr263       O264   1.770       .  S
O265       Cr283   2.036       .  S
O265        C273   1.274       .  A
O266       Cr283   1.960       .  S
O266        C267   1.249       .  A
C267        O268   1.266       .  A
C267        C396   1.496       .  S
O268       Cr284   2.047       .  S
O269       Cr284   1.966       .  S
O269        C270   1.265       .  A
C270        O271   1.271       .  A
C270        C455   1.460       .  S
O271       Cr285   1.998       .  S
O272       Cr285   1.950       .  S
O272        C273   1.256       .  A
C273        C539   1.493       .  S
O274       Cr283   1.954       .  S
O274        C282   1.251       .  A
O275       Cr283   2.045       .  S
O275        C276   1.277       .  A
C276        O277   1.247       .  A
C276        C382   1.466       .  S
O277       Cr284   1.904       .  S
O278       Cr284   2.020       .  S
O278        C279   1.265       .  A
C279        O280   1.261       .  A
C279        C791   1.480       .  S
O280       Cr285   1.979       .  S
O281       Cr285   2.021       .  S
O281        C282   1.266       .  A
C282        C931   1.473       .  S
Cr283       O286   1.773       .  S
Cr284       O286   1.776       .  S
Cr285       O286   1.761       .  S
O287       Cr305   2.019       .  S
O287        C295   1.271       .  A
O288       Cr305   1.948       .  S
O288        C289   1.248       .  A
C289        O290   1.274       .  A
C289        C399   1.509       .  S
O290       Cr306   2.068       .  S
O291       Cr306   1.974       .  S
O291        C292   1.266       .  A
C292        O293   1.269       .  A
C292        C497   1.472       .  S
O293       Cr307   2.004       .  S
O294       Cr307   1.962       .  S
O294        C295   1.256       .  A
C295        C424   1.465       .  S
O296       Cr305   1.957       .  S
O296        C304   1.256       .  A
O297       Cr305   2.040       .  S
O297        C298   1.272       .  A
C298        O299   1.243       .  A
C298        C371   1.457       .  S
O299       Cr306   1.911       .  S
O300       Cr306   2.023       .  S
O300        C301   1.270       .  A
C301        O302   1.261       .  A
C301        C998   1.487       .  S
O302       Cr307   1.960       .  S
O303       Cr307   2.044       .  S
O303        C304   1.270       .  A
C304        C861   1.501       .  S
Cr305       O308   1.759       .  S
Cr306       O308   1.770       .  S
Cr307       O308   1.752       .  S
O309       Cr327   2.036   1_655  S
O309        C317   1.274       .  A
O310       Cr327   1.955       .  S
O310        C311   1.248       .  A
C311        O312   1.269       .  A
C311        C354   1.509       .  S
O312       Cr328   2.067       .  S
O313       Cr328   1.967   1_655  S
O313        C314   1.267       .  A
C314        O315   1.275       .  A
C314        C525   1.467       .  S
O315       Cr329   2.016       .  S
O316       Cr329   1.949       .  S
O316        C317   1.259       .  A
C317        C441   1.498       .  S
O318       Cr327   1.945       .  S
O318        C326   1.251       .  A
O319       Cr327   2.050       .  S
O319        C320   1.278       .  A
C320        O321   1.244       .  A
C320        C385   1.469       .  S
O321       Cr328   1.901       .  S
O322       Cr328   2.018       .  S
O322        C323   1.264       .  A
C323        O324   1.260       .  A
C323        C917   1.471       .  S
O324       Cr329   1.982   1_455  S
O325       Cr329   2.038   1_455  S
O325        C326   1.269       .  A
C326        C777   1.492       .  S
Cr327       O330   1.763       .  S
Cr328       O330   1.773       .  S
Cr329       O330   1.760   1_655  S
O331       Cr349   2.030       .  S
O331        C339   1.274   1_565  A
O332       Cr349   1.953       .  S
O332        C333   1.248       .  A
C333        O334   1.273       .  A
C333        C357   1.507       .  S
O334       Cr350   2.067       .  S
O335       Cr350   1.970       .  S
O335        C336   1.265   1_565  A
C336        O337   1.275       .  A
C336        C410   1.480       .  S
O337       Cr351   2.020   1_545  S
O338       Cr351   1.960   1_545  S
O338        C339   1.260       .  A
C339        C480   1.502       .  S
O340       Cr349   1.961       .  S
O340        C348   1.254       .  A
O341       Cr349   2.049       .  S
O341        C342   1.275       .  A
C342        O343   1.241       .  A
C342        C368   1.466       .  S
O343       Cr350   1.920       .  S
O344       Cr350   2.024       .  S
O344        C345   1.263       .  A
C345        O346   1.263       .  A
C345        C847   1.488       .  S
O346       Cr351   1.969       .  S
O347       Cr351   2.041       .  S
O347        C348   1.271       .  A
C348       C1015   1.490       .  S
Cr349       O352   1.769       .  S
Cr350       O352   1.769       .  S
Cr351       O352   1.757       .  S
C353        C354   1.408       .  A
C353        C358   1.404       .  A
C353        H360   1.082       .  S
C354        C355   1.418       .  A
C355        C356   1.416       .  A
C355        N362   1.427       .  S
C356        C357   1.411       .  A
C356        H361   1.084       .  S
C357        C358   1.418       .  A
C358        N359   1.430       .  S
N359        O363   1.262       .  A
N359        O364   1.262       .  A
N362        O365   1.260       .  A
N362        O366   1.261       .  A
C367        C368   1.393       .  A
C367        C372   1.394       .  A
C367        H374   1.084       .  S
C368        C369   1.427       .  A
C369        C370   1.389       .  A
C369        N376   1.436       .  S
C370        C371   1.388       .  A
C370        H375   1.084       .  S
C371        C372   1.422       .  A
C372        N373   1.441       .  S
N373        O377   1.263       .  A
N373        O378   1.263       .  A
N376        O379   1.263       .  A
N376        O380   1.263       .  A
C381        C382   1.417       .  A
C381        C386   1.391       .  A
C381        H388   1.084       .  S
C382        C383   1.400       .  A
C383        C384   1.390       .  A
C383        N390   1.436       .  S
C384        C385   1.418       .  A
C384        H389   1.083       .  S
C385        C386   1.401       .  A
C386        N387   1.436       .  S
N387        O391   1.263       .  A
N387        O392   1.263       .  A
N390        O393   1.262       .  A
N390        O394   1.262       .  A
C395        C396   1.410       .  A
C395        C400   1.415       .  A
C395        H402   1.083       .  S
C396        C397   1.413       .  A
C397        C398   1.410       .  A
C397        N404   1.442       .  S
C398        C399   1.416       .  A
C398        H403   1.083       .  S
C399        C400   1.418       .  A
C400        N401   1.437       .  S
N401        O405   1.262       .  A
N401        O406   1.263       .  A
N404        O407   1.263       .  A
N404        O408   1.263       .  A
C409        C410   1.398       .  A
C409        C414   1.400       .  A
C409        H416   1.085       .  S
C410        C411   1.422       .  A
C411        C412   1.411       .  A
C411        N418   1.441   1_545  S
C412        C413   1.405       .  A
C412        H417   1.083       .  S
C413        C414   1.423       .  A
C414        N415   1.434       .  S
N415        O419   1.262       .  A
N415        O420   1.262       .  A
N418        O421   1.262       .  A
N418        O422   1.263       .  A
C423        C424   1.389       .  A
C423        C428   1.390       .  A
C423        H430   1.085       .  S
C424        C425   1.420       .  A
C425        C426   1.414       .  A
C425        N432   1.442       .  S
C426        C427   1.403       .  A
C426        H431   1.083       .  S
C427        C428   1.418       .  A
C428        N429   1.428       .  S
N429        O433   1.262       .  A
N429        O434   1.262       .  A
N432        O435   1.262       .  A
N432        O436   1.263       .  A
C437        C438   1.405       .  A
C437        C442   1.412       .  A
C437        H444   1.084       .  S
C438        C439   1.407       .  A
C439        C440   1.397       .  A
C439        N446   1.437       .  S
C440        C441   1.411       .  A
C440        H445   1.083       .  S
C441        C442   1.419       .  A
C442        N443   1.434       .  S
N443        O447   1.263       .  A
N443        O448   1.261       .  A
N446        O449   1.263       .  A
N446        O450   1.261       .  A
C451        C452   1.410       .  A
C451        C456   1.399       .  A
C451        H458   1.078       .  S
C452        C453   1.416       .  A
C453        C454   1.403       .  A
C453        N460   1.434       .  S
C454        C455   1.403       .  A
C454        H459   1.085       .  S
C455        C456   1.406       .  A
C456        N457   1.444       .  S
N457        O461   1.263       .  A
N457        O462   1.263       .  A
N460        O463   1.263       .  A
N460        O464   1.262       .  A
C465        C466   1.410       .  A
C465        C470   1.415       .  A
C465        H472   1.078       .  S
C466        C467   1.415       .  A
C467        C468   1.415       .  A
C467        N474   1.442       .  S
C468        C469   1.416       .  A
C468        H473   1.082       .  S
C469        C470   1.418       .  A
C470        N471   1.437       .  S
N471        O475   1.263       .  A
N471        O476   1.263       .  A
N474        O477   1.263       .  A
N474        O478   1.263       .  A
C479        C480   1.414       .  A
C479        C484   1.406       .  A
C479        H486   1.083       .  S
C480        C481   1.419       .  A
C481        C482   1.409       .  A
C481        N488   1.435       .  S
C482        C483   1.405       .  A
C482        H487   1.084   1_455  S
C483        C484   1.409       .  A
C484        N485   1.441       .  S
N485        O489   1.263       .  A
N485        O490   1.263       .  A
N488        O491   1.262       .  A
N488        O492   1.263   1_455  A
C493        C494   1.414       .  A
C493        C498   1.402       .  A
C493        H500   1.082       .  S
C494        C495   1.417       .  A
C495        C496   1.409       .  A
C495        N502   1.435       .  S
C496        C497   1.406       .  A
C496        H501   1.084       .  S
C497        C498   1.407       .  A
C498        N499   1.443       .  S
N499        O503   1.263       .  A
N499        O504   1.263       .  A
N502        O505   1.263       .  A
N502        O506   1.262       .  A
C507        C508   1.393       .  A
C507        C512   1.392       .  A
C507        H514   1.082       .  S
C508        C509   1.424       .  A
C509        C510   1.395       .  A
C509        N516   1.438       .  S
C510        C511   1.391       .  A
C510        H515   1.085       .  S
C511        C512   1.420       .  A
C512        N513   1.441       .  S
N513        O517   1.263       .  A
N513        O518   1.261       .  A
N516        O519   1.262       .  A
N516        O520   1.263       .  A
C521        C522   1.413       .  A
C521        C526   1.404       .  A
C521        H528   1.083       .  S
C522        C523   1.414       .  A
C523        C524   1.405       .  A
C523        N530   1.436       .  S
C524        C525   1.406       .  A
C524        H529   1.085       .  S
C525        C526   1.407       .  A
C526        N527   1.444       .  S
N527        O531   1.263       .  A
N527        O532   1.263       .  A
N530        O533   1.263       .  A
N530        O534   1.262       .  A
C535        C536   1.403       .  A
C535        C540   1.398       .  A
C535        H542   1.084       .  S
C536        C537   1.419       .  A
C537        C538   1.414       .  A
C537        N544   1.435       .  S
C538        C539   1.407       .  A
C538        H543   1.083       .  S
C539        C540   1.419       .  A
C540        N541   1.438       .  S
N541        O545   1.263       .  A
N541        O546   1.263       .  A
N544        O547   1.262       .  A
N544        O548   1.263       .  A
C549        C550   1.406       .  A
C549        C554   1.391       .  A
C549        H556   1.085       .  S
C550        C551   1.400       .  A
C551        C552   1.391       .  A
C551        N558   1.438       .  S
C552        C553   1.416       .  A
C552        H557   1.083       .  S
C553        C554   1.408       .  A
C554        N555   1.434       .  S
N555        O559   1.262       .  A
N555        O560   1.262       .  A
N558        O561   1.262       .  A
N558        O562   1.262       .  A
C563        C564   1.418       .  A
C563        C568   1.420       .  A
C563        H570   1.083       .  S
C564        C565   1.412       .  A
C565        C566   1.415       .  A
C565        N572   1.444       .  S
C566        C567   1.414       .  A
C566        H571   1.076       .  S
C567        C568   1.416       .  A
C568        N569   1.448       .  S
N569        O573   1.263       .  A
N569        O574   1.262       .  A
N572        O575   1.261       .  A
N572        O576   1.263       .  A
C577        C578   1.401   1_554  A
C577        C582   1.393       .  A
C577        H584   1.084       .  S
C578        C579   1.422       .  A
C579        C580   1.416       .  A
C579        N586   1.438       .  S
C580        C581   1.405   1_556  A
C580        H585   1.083       .  S
C581        C582   1.419       .  A
C582        N583   1.440       .  S
N583        O587   1.263       .  A
N583        O588   1.263       .  A
N586        O589   1.263       .  A
N586        O590   1.262       .  A
C591        C592   1.406       .  A
C591        C596   1.395   1_556  A
C591        H598   1.084       .  S
C592        C593   1.416   1_556  A
C593        C594   1.414       .  A
C593        N600   1.436       .  S
C594        C595   1.408       .  A
C594        H599   1.082       .  S
C595        C596   1.412       .  A
C596        N597   1.439   1_554  S
N597        O601   1.263       .  A
N597        O602   1.263   1_546  A
N600        O603   1.262       .  A
N600        O604   1.262       .  A
C605        C606   1.389       .  A
C605        C610   1.410       .  A
C605        H612   1.084       .  S
C606        C607   1.430       .  A
C607        C608   1.415       .  A
C607        N614   1.434       .  S
C608        C609   1.401       .  A
C608        H613   1.084       .  S
C609        C610   1.434       .  A
C610        N611   1.434       .  S
N611        O615   1.263       .  A
N611        O616   1.262       .  A
N614        O617   1.260       .  A
N614        O618   1.262       .  A
C619        C620   1.409       .  A
C619        C624   1.422       .  A
C619        H626   1.083       .  S
C620        C621   1.420       .  A
C621        C622   1.379       .  A
C621        N628   1.431       .  S
C622        C623   1.397       .  A
C622        H627   1.083       .  S
C623        C624   1.425       .  A
C624        N625   1.436       .  S
N625        O629   1.262       .  A
N625        O630   1.261       .  A
N628        O631   1.262       .  A
N628        O632   1.262       .  A
C633        C634   1.403       .  A
C633        C638   1.398       .  A
C633        H640   1.085       .  S
C634        C635   1.418       .  A
C635        C636   1.415       .  A
C635        N642   1.441       .  S
C636        C637   1.407       .  A
C636        H641   1.083       .  S
C637        C638   1.414       .  A
C638        N639   1.441       .  S
N639        O643   1.262       .  A
N639        O644   1.262       .  A
N642        O645   1.262       .  A
N642        O646   1.263       .  A
C647        C648   1.411       .  A
C647        C652   1.399       .  A
C647        H654   1.083       .  S
C648        C649   1.419   1_556  A
C649        C650   1.414       .  A
C649        N656   1.437       .  S
C650        C651   1.409       .  A
C650        H655   1.083       .  S
C651        C652   1.411   1_554  A
C652        N653   1.439       .  S
N653        O657   1.263       .  A
N653        O658   1.263       .  A
N656        O659   1.262       .  A
N656        O660   1.263       .  A
C661        C662   1.408       .  A
C661        C666   1.414       .  A
C661        H668   1.083       .  S
C662        C663   1.411       .  A
C663        C664   1.393   1_556  A
C663        N670   1.432       .  S
C664        C665   1.404       .  A
C664        H669   1.084       .  S
C665        C666   1.417   1_554  A
C666        N667   1.436       .  S
N667        O671   1.263       .  A
N667        O672   1.262   1_545  A
N670        O673   1.261   1_556  A
N670        O674   1.262       .  A
C675        C676   1.390       .  A
C675        C680   1.393       .  A
C675        H682   1.084       .  S
C676        C677   1.421       .  A
C677        C678   1.385       .  A
C677        N684   1.440       .  S
C678        C679   1.388       .  A
C678        H683   1.075       .  S
C679        C680   1.424       .  A
C680        N681   1.428       .  S
N681        O685   1.262       .  A
N681        O686   1.261       .  A
N684        O687   1.263       .  A
N684        O688   1.263       .  A
C689        C690   1.414       .  A
C689        C694   1.394       .  A
C689        H696   1.083       .  S
C690        C691   1.402       .  A
C691        C692   1.392       .  A
C691        N698   1.434       .  S
C692        C693   1.415       .  A
C692        H697   1.084       .  S
C693        C694   1.405       .  A
C694        N695   1.436       .  S
N695        O699   1.263       .  A
N695        O700   1.261       .  A
N698        O701   1.262       .  A
N698        O702   1.263       .  A
C703        C704   1.415       .  A
C703        C708   1.415       .  A
C703        H710   1.082       .  S
C704        C705   1.422       .  A
C705        C706   1.422       .  A
C705        N712   1.435       .  S
C706        C707   1.414       .  A
C706        H711   1.083       .  S
C707        C708   1.419       .  A
C708        N709   1.442       .  S
N709        O713   1.263       .  A
N709        O714   1.263       .  A
N712        O715   1.262       .  A
N712        O716   1.263       .  A
C717        C718   1.406       .  A
C717        C722   1.409       .  A
C717        H724   1.083       .  S
C718        C719   1.411       .  A
C719        C720   1.408       .  A
C719        N726   1.430       .  S
C720        C721   1.405       .  A
C720        H725   1.084       .  S
C721        C722   1.416       .  A
C722        N723   1.442       .  S
N723        O727   1.263       .  A
N723        O728   1.263       .  A
N726        O729   1.262       .  A
N726        O730   1.262       .  A
C731        C732   1.402       .  A
C731        C736   1.408       .  A
C731        H738   1.084       .  S
C732        C733   1.416       .  A
C733        C734   1.402       .  A
C733        N740   1.442       .  S
C734        C735   1.399       .  A
C734        H739   1.082       .  S
C735        C736   1.413       .  A
C736        N737   1.434       .  S
N737        O741   1.262       .  A
N737        O742   1.262       .  A
N740        O743   1.263       .  A
N740        O744   1.263       .  A
C745        C746   1.408       .  A
C745        C750   1.408       .  A
C745        H752   1.084   1_545  S
C746        C747   1.407       .  A
C747        C748   1.405       .  A
C747        N754   1.444       .  S
C748        C749   1.415       .  A
C748        H753   1.083       .  S
C749        C750   1.413       .  A
C750        N751   1.436       .  S
N751        O755   1.263   1_545  A
N751        O756   1.262       .  A
N754        O757   1.263       .  A
N754        O758   1.263       .  A
C759        C760   1.407       .  A
C759        C764   1.412       .  A
C759        H766   1.083       .  S
C760        C761   1.424       .  A
C761        C762   1.401       .  A
C761        N768   1.434       .  S
C762        C763   1.398       .  A
C762        H767   1.085       .  S
C763        C764   1.419       .  A
C764        N765   1.438       .  S
N765        O769   1.263       .  A
N765        O770   1.262       .  A
N768        O771   1.263       .  A
N768        O772   1.262       .  A
C773        C774   1.406       .  A
C773        C778   1.412       .  A
C773        H780   1.082       .  S
C774        C775   1.412       .  A
C775        C776   1.401   1_556  A
C775        N782   1.440   1_556  S
C776        C777   1.409       .  A
C776        H781   1.083       .  S
C777        C778   1.416   1_554  A
C778        N779   1.434       .  S
N779        O783   1.262       .  A
N779        O784   1.262       .  A
N782        O785   1.263   1_564  A
N782        O786   1.263       .  A
C787        C788   1.407       .  A
C787        C792   1.404   1_556  A
C787        H794   1.083       .  S
C788        C789   1.415   1_556  A
C789        C790   1.411       .  A
C789        N796   1.435       .  S
C790        C791   1.406       .  A
C790        H795   1.083       .  S
C791        C792   1.411       .  A
C792        N793   1.442   1_554  S
N793        O797   1.263       .  A
N793        O798   1.263   1_556  A
N796        O799   1.261       .  A
N796        O800   1.262       .  A
C801        C802   1.415       .  A
C801        C806   1.408       .  A
C801        H808   1.083       .  S
C802        C803   1.416       .  A
C803        C804   1.407       .  A
C803        N810   1.433       .  S
C804        C805   1.405       .  A
C804        H809   1.084       .  S
C805        C806   1.409       .  A
C806        N807   1.444       .  S
N807        O811   1.263       .  A
N807        O812   1.263       .  A
N810        O813   1.262       .  A
N810        O814   1.263       .  A
C815        C816   1.390       .  A
C815        C820   1.401       .  A
C815        H822   1.084       .  S
C816        C817   1.419       .  A
C817        C818   1.408       .  A
C817        N824   1.438       .  S
C818        C819   1.403       .  A
C818        H823   1.083       .  S
C819        C820   1.420       .  A
C820        N821   1.430       .  S
N821        O825   1.262       .  A
N821        O826   1.263       .  A
N824        O827   1.263       .  A
N824        O828   1.262       .  A
C829        C830   1.413       .  A
C829        C834   1.411       .  A
C829        H836   1.083       .  S
C830        C831   1.423       .  A
C831        C832   1.422       .  A
C831        N838   1.436       .  S
C832        C833   1.412       .  A
C832        H837   1.083       .  S
C833        C834   1.418       .  A
C834        N835   1.440       .  S
N835        O839   1.263       .  A
N835        O840   1.263       .  A
N838        O841   1.262       .  A
N838        O842   1.263       .  A
C843        C844   1.406       .  A
C843        C848   1.419       .  A
C843        H850   1.083       .  S
C844        C845   1.416       .  A
C845        C846   1.381       .  A
C845        N852   1.423       .  S
C846        C847   1.392       .  A
C846        H851   1.085       .  S
C847        C848   1.422       .  A
C848        N849   1.430       .  S
N849        O853   1.262       .  A
N849        O854   1.261       .  A
N852        O855   1.261       .  A
N852        O856   1.261       .  A
C857        C858   1.408       .  A
C857        C862   1.416       .  A
C857        H864   1.082       .  S
C858        C859   1.413       .  A
C859        C860   1.400       .  A
C859        N866   1.439       .  S
C860        C861   1.409       .  A
C860        H865   1.083       .  S
C861        C862   1.421       .  A
C862        N863   1.437       .  S
N863        O867   1.263       .  A
N863        O868   1.262       .  A
N866        O869   1.263       .  A
N866        O870   1.263       .  A
C871        C872   1.407       .  A
C871        C876   1.413       .  A
C871        H878   1.083       .  S
C872        C873   1.416       .  A
C873        C874   1.396       .  A
C873        N880   1.440       .  S
C874        C875   1.405       .  A
C874        H879   1.084       .  S
C875        C876   1.418       .  A
C876        N877   1.436       .  S
N877        O881   1.263   1_455  A
N877        O882   1.262       .  A
N880        O883   1.263       .  A
N880        O884   1.263       .  A
C885        C886   1.412       .  A
C885        C890   1.400       .  A
C885        H892   1.083       .  S
C886        C887   1.417       .  A
C887        C888   1.406       .  A
C887        N894   1.434       .  S
C888        C889   1.404       .  A
C888        H893   1.084       .  S
C889        C890   1.408       .  A
C890        N891   1.442       .  S
N891        O895   1.263       .  A
N891        O896   1.263       .  A
N894        O897   1.261       .  A
N894        O898   1.263       .  A
C899        C900   1.387       .  A
C899        C904   1.389       .  A
C899        H906   1.085       .  S
C900        C901   1.418       .  A
C901        C902   1.395       .  A
C901        N908   1.439       .  S
C902        C903   1.396       .  A
C902        H907   1.084       .  S
C903        C904   1.424       .  A
C904        N905   1.437       .  S
N905        O909   1.263       .  A
N905        O910   1.263       .  A
N908        O911   1.262       .  A
N908        O912   1.263       .  A
C913        C914   1.403       .  A
C913        C918   1.409   1_556  A
C913        H920   1.084       .  S
C914        C915   1.415   1_556  A
C915        C916   1.403       .  A
C915        N922   1.442   1_554  S
C916        C917   1.402       .  A
C916        H921   1.084       .  S
C917        C918   1.416       .  A
C918        N919   1.445   1_455  S
N919        O923   1.263   1_554  A
N919        O924   1.262       .  A
N922        O925   1.262       .  A
N922        O926   1.262   1_556  A
C927        C928   1.402       .  A
C927        C932   1.404       .  A
C927        H934   1.084       .  S
C928        C929   1.415       .  A
C929        C930   1.408       .  A
C929        N936   1.442       .  S
C930        C931   1.403   1_556  A
C930        H935   1.084   1_556  S
C931        C932   1.415   1_554  A
C932        N933   1.439       .  S
N933        O937   1.263       .  A
N933        O938   1.262   1_556  A
N936        O939   1.262       .  A
N936        O940   1.263       .  A
C941        C942   1.407       .  A
C941        C946   1.398       .  A
C941        H948   1.084       .  S
C942        C943   1.415       .  A
C943        C944   1.408       .  A
C943        N950   1.432       .  S
C944        C945   1.409       .  A
C944        H949   1.083       .  S
C945        C946   1.417       .  A
C946        N947   1.431       .  S
N947        O951   1.262       .  A
N947        O952   1.263       .  A
N950        O953   1.261       .  A
N950        O954   1.262       .  A
C955        C956   1.407       .  A
C955        C960   1.411       .  A
C955        H962   1.084       .  S
C956        C957   1.406       .  A
C957        C958   1.397       .  A
C957        N964   1.425       .  S
C958        C959   1.400       .  A
C958        H963   1.085       .  S
C959        C960   1.417       .  A
C960        N961   1.439       .  S
N961        O965   1.263       .  A
N961        O966   1.263       .  A
N964        O967   1.261       .  A
N964        O968   1.263       .  A
C969        C970   1.416       .  A
C969        C974   1.399       .  A
C969        H976   1.082       .  S
C970        C971   1.400       .  A
C971        C972   1.387       .  A
C971        N978   1.440       .  S
C972        C973   1.419       .  A
C972        H977   1.083       .  S
C973        C974   1.404       .  A
C974        N975   1.439       .  S
N975        O979   1.263       .  A
N975        O980   1.262       .  A
N978        O981   1.258       .  A
N978        O982   1.263       .  A
C983        C984   1.397       .  A
C983        C988   1.403       .  A
C983        H990   1.083       .  S
C984        C985   1.431       .  A
C985        C986   1.418       .  A
C985        N992   1.433       .  S
C986        C987   1.402       .  A
C986        H991   1.084       .  S
C987        C988   1.422       .  A
C988        N989   1.432       .  S
N989        O993   1.261       .  A
N989        O994   1.262       .  A
N992        O995   1.262       .  A
N992        O996   1.262       .  A
C997        C998   1.412       .  A
C997       C1002   1.416       .  A
C997       H1004   1.082       .  S
C998        C999   1.411       .  A
C999       C1000   1.387       .  A
C999       N1006   1.431       .  S
C1000      C1001   1.398       .  A
C1000      H1005   1.079       .  S
C1001      C1002   1.415       .  A
C1002      N1003   1.442       .  S
N1003      O1007   1.263       .  A
N1003      O1008   1.263   1_455  A
N1006      O1009   1.263       .  A
N1006      O1010   1.262       .  A
C1011      C1012   1.407       .  A
C1011      C1016   1.419       .  A
C1011      H1018   1.083       .  S
C1012      C1013   1.416       .  A
C1013      C1014   1.406       .  A
C1013      N1020   1.441       .  S
C1014      C1015   1.404       .  A
C1014      H1019   1.084       .  S
C1015      C1016   1.421       .  A
C1016      N1017   1.443       .  S
N1017      O1021   1.263       .  A
N1017      O1022   1.262       .  A
N1020      O1023   1.262       .  A
N1020      O1024   1.263       .  A
