geometry optimzed in LAMMPS
_audit_creation_date              2020-12-01 
_audit_creation_method            'lammps2cif' 
_symmetry_space_group_name_H-M    'P1' 
_symmetry_Int_Tables_number       1 
_symmetry_cell_setting            triclinic 
loop_ 
_symmetry_equiv_pos_as_xyz 
  x,y,z 
_cell_length_a                    72.1298015 
_cell_length_b                    71.91981614657976 
_cell_length_c                    38.85926655557931 
_cell_angle_alpha                 89.5930038617208 
_cell_angle_beta                  89.85970652005676 
_cell_angle_gamma                 89.75355054964392 
loop_ 
_atom_site_label 
_atom_site_type_symbol 
_atom_site_fract_x 
_atom_site_fract_y 
_atom_site_fract_z 
_atom_site_charge 
Zr1        Zr  0.89943613  0.38715786  0.39571905     2.17500
O2          O  0.91827968  0.41126013  0.36843059    -0.51400
O3          O  0.89474953  0.37931949  0.33517678    -0.74600
O4          O  0.93268730  0.38005613  0.39486329    -0.81400
O5          O  0.85695607  0.41918188  0.40005682    -0.83100
O6          O  0.93847209  0.35390515  0.42625404    -0.78700
O7          O  0.88784144  0.41894834  0.38836477    -0.90400
O8          O  0.87772462  0.35293408  0.33165031    -0.76300
O9          O  0.89985361  0.35399635  0.39820336    -0.85800
O10         O  0.86834060  0.37748047  0.38602211    -0.85500
O11         O  0.91040658  0.37933948  0.45260388    -0.72300
O12         O  0.88143527  0.40078299  0.44105653    -0.84400
Zr13       Zr  0.86049553  0.34904708  0.49040637     2.26400
Zr14       Zr  0.90985187  0.34599088  0.45528097     2.06300
Zr15       Zr  0.85057452  0.39067038  0.43146593     2.10000
Zr16       Zr  0.86872670  0.34436668  0.38924491     1.78800
O17         O  0.83634079  0.41638096  0.46243903    -0.93200
O18         O  0.88493170  0.31681081  0.36862987    -0.41000
O19         O  0.85011125  0.35746370  0.43378897    -0.77600
O20         O  0.87889945  0.33521845  0.44532007    -0.96300
O21         O  0.89145239  0.35897271  0.50038622    -0.89600
O22         O  0.86015295  0.38228009  0.48842543    -0.92500
C23         C  0.88648083  0.36657707  0.31808159     1.01300
C24         C  0.87186100  0.42695019  0.38921301     1.14200
C25         C  0.94362104  0.36745120  0.40691172     1.05000
O26         O  0.92291544  0.31812832  0.42933085    -0.94600
O27         O  0.90567626  0.31957124  0.49371576    -0.90400
O28         O  0.87513925  0.31984142  0.50826984    -0.83500
C29         C  0.89140705  0.31246349  0.50841606     1.11600
O30         O  0.90810890  0.42116715  0.49059011    -0.96600
Zr31       Zr  0.89132914  0.39199909  0.49733220     1.88900
O32         O  0.86268251  0.35852288  0.55077016    -0.73200
O33         O  0.93314686  0.34877852  0.50021795    -0.52500
O34         O  0.92064758  0.38996281  0.52815827    -0.97200
O35         O  0.87510406  0.41856799  0.52220194    -0.54400
O36         O  0.88323963  0.38222750  0.55474306    -0.73800
C37         C  0.87248181  0.37004933  0.56810981     0.98600
O38         O  0.83851600  0.32686132  0.51498172    -0.62600
O39         O  0.82812446  0.39257144  0.38477182    -0.57400
O40         O  0.82677419  0.35152682  0.48156268    -0.94100
O41         O  0.82188307  0.37894560  0.45359709    -0.92500
O42         O  0.84032248  0.34622678  0.35559757    -0.92800
O43         O  0.84972612  0.31659160  0.39498445    -0.91600
C44         C  0.81613554  0.36414580  0.46853713     1.17400
H45         H  0.86344061  0.38202013  0.36442073     0.33400
H46         H  0.87845239  0.32180972  0.44594815     0.44200
H47         H  0.85173001  0.38724593  0.50544498     0.37700
H48         H  0.92279186  0.38395232  0.45619471     0.34200
H49         H  0.87918502  0.31412799  0.34609882     0.26000
H50         H  0.94190409  0.33840608  0.49594502     0.32000
H51         H  0.91814380  0.39563356  0.55085411     0.37900
H52         H  0.84266706  0.33828938  0.33531064     0.32300
H53         H  0.82400994  0.37960017  0.38135570     0.31200
H54         H  0.82406809  0.41812253  0.45148953     0.32900
H55         H  0.86416062  0.41339213  0.53426063     0.31800
H56         H  0.84522887  0.31680291  0.41908002     0.35800
H57         H  0.83949587  0.31561517  0.50050085     0.28600
H58         H  0.92553370  0.40500452  0.35016373     0.32800
H59         H  0.91096608  0.42533110  0.51421518     0.35700
H60         H  0.81720098  0.39896487  0.39474732     0.28300
H61         H  0.84364451  0.32309597  0.53761201     0.41100
H62         H  0.91205319  0.31033178  0.42383744     0.31200
H63         H  0.89757451  0.32114354  0.36282867     0.38800
H64         H  0.86989679  0.42538767  0.50219611     0.30700
H65         H  0.94023242  0.36011562  0.49425012     0.30700
H66         H  0.92749750  0.41501418  0.38588166     0.31000
Zr67       Zr  0.90000615  0.38556618  0.89719639     2.17500
O68         O  0.92073160  0.40732361  0.86789417    -0.51400
O69         O  0.89495980  0.37844400  0.83616061    -0.74600
O70         O  0.93244477  0.37612615  0.89814744    -0.81400
O71         O  0.86095214  0.42097751  0.90226902    -0.83100
O72         O  0.93692423  0.34961964  0.92922918    -0.78700
O73         O  0.89191148  0.41856310  0.89247923    -0.90400
O74         O  0.87499129  0.35427359  0.83221600    -0.76300
O75         O  0.89790129  0.35247320  0.89944717    -0.85800
O76         O  0.86824830  0.37869125  0.88721153    -0.85500
O77         O  0.91022392  0.37662964  0.95418095    -0.72300
O78         O  0.88321463  0.40050765  0.94268445    -0.84400
Zr79       Zr  0.85833108  0.35051416  0.99153195     2.26400
Zr80       Zr  0.90725404  0.34336208  0.95655297     2.06300
Zr81       Zr  0.85160356  0.39301564  0.93309030     2.10000
Zr82       Zr  0.86602904  0.34566659  0.89002801     1.78800
O83         O  0.83984881  0.41902551  0.96660985    -0.93200
O84         O  0.87992049  0.31708399  0.86833638    -0.41000
O85         O  0.84862600  0.35988075  0.93503343    -0.77600
O86         O  0.87548997  0.33550150  0.94611046    -0.96300
O87         O  0.88999908  0.35780205  0.00173459    -0.89600
O88         O  0.86039082  0.38363950  0.99002061    -0.92500
C89         C  0.88530943  0.36682158  0.81875412     1.01300
C90         C  0.87660786  0.42780606  0.89296955     1.14200
C91         C  0.94276416  0.36314014  0.91047045     1.05000
O92         O  0.91696469  0.31453006  0.92930251    -0.94600
O93         O  0.90047608  0.31730511  0.99515348    -0.90400
O94         O  0.86992763  0.32005163  0.00880736    -0.83500
C95         C  0.88549682  0.31132847  0.00930595     1.11600
O96         O  0.91128575  0.41858635  0.99460588    -0.96600
Zr97       Zr  0.89223961  0.39077872  0.99892007     1.88900
O98         O  0.86029003  0.36030275  0.05162591    -0.73200
O99         O  0.93078657  0.34318802  0.00145657    -0.52500
O100        O  0.92128538  0.38801871  0.03040899    -0.97200
O101        O  0.87687178  0.41797543  0.02347843    -0.54400
O102        O  0.88352668  0.38130648  0.05597814    -0.73800
C103        C  0.87126033  0.37061128  0.06910362     0.98600
O104        O  0.83799524  0.32775973  0.01922749    -0.62600
O105        O  0.82855776  0.39860224  0.88833998    -0.57400
O106        O  0.82506122  0.35552707  0.98139366    -0.94100
O107        O  0.82167396  0.38285859  0.95247993    -0.92500
O108        O  0.83658085  0.35000917  0.86042781    -0.92800
O109        O  0.84506834  0.31924069  0.89246559    -0.91600
C110        C  0.81512194  0.36833382  0.96727489     1.17400
H111        H  0.86386331  0.38377768  0.86563654     0.33400
H112        H  0.87390537  0.32217552  0.94653708     0.44200
H113        H  0.85229368  0.38910451  0.00705954     0.37700
H114        H  0.92287925  0.38030598  0.95824556     0.34200
H115        H  0.87813549  0.31762513  0.84309711     0.26000
H116        H  0.93896868  0.33254092  0.99584079     0.32000
H117        H  0.92077365  0.37561260  0.04156483     0.37900
H118        H  0.83658992  0.36314750  0.85266484     0.32300
H119        H  0.82209033  0.41011877  0.89550657     0.31200
H120        H  0.85041581  0.42771730  0.96820926     0.32900
H121        H  0.88543322  0.42242633  0.04148383     0.31800
H122        H  0.84043139  0.31905879  0.91647481     0.35800
H123        H  0.83014275  0.32252656  0.00079200     0.28600
H124        H  0.92725515  0.40006304  0.84996657     0.32800
H125        H  0.91930698  0.41645251  0.97428987     0.35700
H126        H  0.83564298  0.40228662  0.86755339     0.28300
H127        H  0.82938274  0.33490256  0.03398516     0.41100
H128        H  0.92902864  0.31144368  0.94007254     0.31200
H129        H  0.89343155  0.31863621  0.87154055     0.38800
H130        H  0.86612389  0.41316403  0.03662071     0.30700
H131        H  0.93846416  0.35431750  0.99687313     0.30700
H132        H  0.93040407  0.41060577  0.88482779     0.31000
Zr133      Zr  0.89879749  0.11950550  0.25014746     2.17500
O134        O  0.91792371  0.09735096  0.28234976    -0.51400
O135        O  0.89056670  0.12808179  0.30962845    -0.74600
O136        O  0.93182218  0.12755728  0.25267816    -0.81400
O137        O  0.85855315  0.08547533  0.24139946    -0.83100
O138        O  0.93657900  0.15439763  0.22269637    -0.78700
O139        O  0.88876208  0.08709354  0.25745025    -0.90400
O140        O  0.87090477  0.15282202  0.30850382    -0.76300
O141        O  0.89690801  0.15267211  0.24595616    -0.85800
O142        O  0.86678276  0.12749722  0.25430666    -0.85500
O143        O  0.91156032  0.12772819  0.19448789    -0.72300
O144        O  0.88411771  0.10423737  0.20271468    -0.84400
Zr145      Zr  0.86155743  0.15372373  0.14731369     2.26400
Zr146      Zr  0.90867141  0.16098180  0.19018695     2.06300
Zr147      Zr  0.85221603  0.11270991  0.20696716     2.10000
Zr148      Zr  0.86487716  0.16050391  0.24934208     1.78800
O149        O  0.84069570  0.08668315  0.17359754    -0.93200
O150        O  0.87895678  0.18816745  0.27387506    -0.41000
O151        O  0.84939439  0.14573260  0.20283890    -0.77600
O152        O  0.87656499  0.16968987  0.19414198    -0.96300
O153        O  0.89366187  0.14607949  0.14305522    -0.89600
O154        O  0.86384514  0.12062476  0.15104432    -0.92500
C155        C  0.88020925  0.14031789  0.32443320     1.01300
C156        C  0.87320973  0.07848774  0.25480454     1.14200
C157        C  0.94219181  0.14083001  0.24160345     1.05000
O158        O  0.91664124  0.18966170  0.21950778    -0.94600
O159        O  0.90442136  0.18618237  0.14880025    -0.90400
O160        O  0.87496905  0.18329942  0.12887881    -0.83500
C161        C  0.89058160  0.19180077  0.13074532     1.11600
O162        O  0.91680584  0.08662194  0.15480929    -0.96600
Zr163      Zr  0.89604610  0.11321248  0.14764842     1.88900
O164        O  0.86713325  0.14343129  0.08818622    -0.73200
O165        O  0.93516083  0.16218117  0.15118942    -0.52500
O166        O  0.92640708  0.11738812  0.12108333    -0.97200
O167        O  0.88285495  0.08480589  0.12435222    -0.54400
O168        O  0.89001841  0.12167672  0.08868099    -0.73800
C169        C  0.87880874  0.13264988  0.07306804     0.98600
O170        O  0.83910192  0.17273425  0.11583267    -0.62600
O171        O  0.82864018  0.10817600  0.25129546    -0.57400
O172        O  0.82764162  0.14952882  0.15305667    -0.94100
O173        O  0.82325637  0.12273776  0.18316196    -0.92500
O174        O  0.83389065  0.15708441  0.27355885    -0.92800
O175        O  0.84558801  0.18822442  0.24370855    -0.91600
C176        C  0.81719126  0.13688509  0.16649990     1.17400
H177        H  0.86115425  0.12288469  0.27522940     0.33400
H178        H  0.87504680  0.18300476  0.19238952     0.44200
H179        H  0.85675665  0.11473842  0.13314160     0.37700
H180        H  0.92435002  0.12390994  0.19230822     0.34200
H181        H  0.87234390  0.19012735  0.29592811     0.26000
H182        H  0.94352056  0.17159089  0.16118343     0.32000
H183        H  0.92550497  0.12933207  0.10836449     0.37900
H184        H  0.83520204  0.14766761  0.29210864     0.32300
H185        H  0.82171375  0.12007594  0.25216786     0.31200
H186        H  0.82849066  0.08372197  0.18393817     0.32900
H187        H  0.87464478  0.08890502  0.10535856     0.31800
H188        H  0.83956570  0.18696856  0.22097625     0.35800
H189        H  0.83919118  0.18505182  0.12706187     0.28600
H190        H  0.92451182  0.10460994  0.30005778     0.32800
H191        H  0.91912601  0.08187449  0.13131661     0.35700
H192        H  0.81978808  0.09921957  0.24134863     0.28300
H193        H  0.84467687  0.17488908  0.09284093     0.41100
H194        H  0.90523388  0.19734712  0.21850726     0.31200
H195        H  0.89159330  0.18424604  0.28077888     0.38800
H196        H  0.87430984  0.08027311  0.14249338     0.30700
H197        H  0.94172975  0.15019746  0.15460884     0.30700
H198        H  0.92767380  0.09309399  0.26618508     0.31000
Zr199      Zr  0.90010941  0.12221151  0.74861125     2.17500
O200        O  0.91847400  0.10027470  0.78277622    -0.51400
O201        O  0.89657426  0.13331832  0.80792463    -0.74600
O202        O  0.93337721  0.12804072  0.74515402    -0.81400
O203        O  0.85807837  0.09018231  0.75034879    -0.83100
O204        O  0.93910358  0.15252181  0.70937117    -0.78700
O205        O  0.88918713  0.09048741  0.75922302    -0.90400
O206        O  0.87883824  0.15943850  0.80809408    -0.76300
O207        O  0.90033132  0.15518057  0.74075243    -0.85800
O208        O  0.86902213  0.13219769  0.75806324    -0.85500
O209        O  0.91051338  0.12747630  0.69018261    -0.72300
O210        O  0.88181141  0.10668838  0.70619158    -0.84400
Zr211      Zr  0.86026763  0.15522404  0.64938697     2.26400
Zr212      Zr  0.90977861  0.16067082  0.68217690     2.06300
Zr213      Zr  0.85078097  0.11718530  0.71540079     2.10000
Zr214      Zr  0.86914776  0.16502603  0.74960528     1.78800
O215        O  0.83626760  0.09189919  0.68414856    -0.93200
O216        O  0.88480452  0.19355561  0.76601438    -0.41000
O217        O  0.85042707  0.15007049  0.70764694    -0.77600
O218        O  0.87862299  0.17131722  0.69179154    -0.96300
O219        O  0.89134655  0.14540289  0.63971783    -0.89600
O220        O  0.86008077  0.12235331  0.65681271    -0.92500
C221        C  0.88828764  0.14677290  0.82338197     1.01300
C222        C  0.87322101  0.08259733  0.76050905     1.14200
C223        C  0.94433974  0.13960657  0.73024928     1.05000
O224        O  0.92349892  0.18884776  0.70511940    -0.94600
O225        O  0.90388930  0.18675930  0.64281335    -0.90400
O226        O  0.87365106  0.18379401  0.62778084    -0.83500
C227        C  0.88916786  0.19236871  0.62718461     1.11600
O228        O  0.91072120  0.08506590  0.65625673    -0.96600
Zr229      Zr  0.89142427  0.11266053  0.64825464     1.88900
O230        O  0.86240818  0.14347736  0.59042375    -0.73200
O231        O  0.93170187  0.15718872  0.63488369    -0.52500
O232        O  0.91997949  0.11410162  0.61457934    -0.97200
O233        O  0.87542241  0.08446598  0.63081279    -0.54400
O234        O  0.88192010  0.11869454  0.58982952    -0.73800
C235        C  0.87145147  0.13060288  0.57479942     0.98600
O236        O  0.83798603  0.17552989  0.62015718    -0.62600
O237        O  0.82796681  0.11426110  0.76158543    -0.57400
O238        O  0.82669141  0.15238346  0.65727206    -0.94100
O239        O  0.82153661  0.13138314  0.70025594    -0.92500
O240        O  0.84108161  0.16456692  0.78454562    -0.92800
O241        O  0.84947943  0.19209140  0.73925021    -0.91600
C242        C  0.81603629  0.14349773  0.67818040     1.17400
H243        H  0.86456260  0.12871574  0.78062070     0.33400
H244        H  0.87780433  0.18466272  0.68942224     0.44200
H245        H  0.85164969  0.11663543  0.64082294     0.37700
H246        H  0.92281554  0.12256820  0.68638310     0.34200
H247        H  0.87864682  0.19738241  0.78765957     0.26000
H248        H  0.94126910  0.16672932  0.63908573     0.32000
H249        H  0.91751682  0.12320752  0.59589793     0.37900
H250        H  0.83577330  0.15206321  0.78094146     0.32300
H251        H  0.82202572  0.10204626  0.75800134     0.31200
H252        H  0.82715423  0.08656666  0.70050809     0.32900
H253        H  0.86474436  0.08870156  0.61680640     0.31800
H254        H  0.84522417  0.19073512  0.71518603     0.35800
H255        H  0.83868395  0.18770746  0.63182706     0.28600
H256        H  0.92572351  0.10790295  0.79899762     0.32800
H257        H  0.91191570  0.07944699  0.63315703     0.35700
H258        H  0.83517555  0.11268871  0.78306155     0.28300
H259        H  0.84305651  0.17775191  0.59677806     0.41100
H260        H  0.93426811  0.19136969  0.68996202     0.31200
H261        H  0.89736844  0.18954327  0.77319063     0.38800
H262        H  0.86981242  0.07956664  0.65229227     0.30700
H263        H  0.93807472  0.14521168  0.63947087     0.30700
H264        H  0.92774873  0.09488749  0.76682592     0.31000
Zr265      Zr  0.34944092  0.35295293  0.12013030     2.17500
O266        O  0.32746245  0.33343433  0.15164425    -0.51400
O267        O  0.35941152  0.35644965  0.18019923    -0.74600
O268        O  0.35555841  0.31942580  0.11514555    -0.81400
O269        O  0.31493029  0.39397585  0.11570734    -0.83100
O270        O  0.38534757  0.31718480  0.09701086    -0.78700
O271        O  0.31794406  0.36347803  0.13059465    -0.90400
O272        O  0.38256607  0.37762665  0.18338928    -0.76300
O273        O  0.38235809  0.35538897  0.11905993    -0.85800
O274        O  0.35626319  0.38510062  0.12810152    -0.85500
O275        O  0.35801752  0.34210581  0.06358893    -0.72300
O276        O  0.33447651  0.36984074  0.07402587    -0.84400
Zr277      Zr  0.38503180  0.39281877  0.02402031     2.26400
Zr278      Zr  0.39108799  0.34482902  0.06288701     2.06300
Zr279      Zr  0.34225737  0.40181879  0.08141365     2.10000
Zr280      Zr  0.38909961  0.38762034  0.12577078     1.78800
O281        O  0.31594857  0.41241657  0.04722940    -0.93200
O282        O  0.41872175  0.37588899  0.14700800    -0.41000
O283        O  0.37529065  0.40412462  0.07912911    -0.77600
O284        O  0.39948334  0.37666077  0.07133383    -0.96300
O285        O  0.37708910  0.36113055  0.01571904    -0.89600
O286        O  0.35187448  0.39156794  0.02544779    -0.92500
C287        C  0.37104882  0.36634172  0.19711852     1.01300
C288        C  0.30887027  0.37884632  0.12941134     1.14200
C289        C  0.37012258  0.30998476  0.10737955     1.05000
O290        O  0.42032541  0.33381773  0.08687827    -0.94600
O291        O  0.41775546  0.35080137  0.02650494    -0.90400
O292        O  0.41658626  0.38139346  0.01161940    -0.83500
C293        C  0.42489555  0.36552273  0.01337973     1.11600
O294        O  0.31621083  0.34103454  0.02631970    -0.96600
Zr295      Zr  0.34408017  0.35968500  0.01823931     1.88900
O296        O  0.37667966  0.38826257  0.96388859    -0.73200
O297        O  0.38943344  0.31920945  0.02224204    -0.52500
O298        O  0.34731176  0.32979302  0.98956940    -0.97200
O299        O  0.31692088  0.37370053  0.99080218    -0.54400
O300        O  0.35388233  0.36673536  0.96051091    -0.73800
C301        C  0.36576366  0.37770179  0.94690904     0.98600
O302        O  0.40429538  0.41622750  0.99575446    -0.62600
O303        O  0.33863182  0.42642033  0.12381568    -0.57400
O304        O  0.37914397  0.42609837  0.02898339    -0.94100
O305        O  0.35269606  0.43168132  0.05929130    -0.92500
O306        O  0.38230619  0.41565487  0.15834675    -0.92800
O307        O  0.41308438  0.41119981  0.12032843    -0.91600
C308        C  0.36688984  0.43705640  0.04191485     1.17400
H309        H  0.35139826  0.38952211  0.14974041     0.33400
H310        H  0.41274855  0.37811666  0.07179522     0.44200
H311        H  0.34672322  0.39943203  0.00759121     0.37700
H312        H  0.35433938  0.32951749  0.05876366     0.34200
H313        H  0.41651439  0.36254974  0.15187827     0.26000
H314        H  0.39718216  0.32310522  0.00243106     0.32000
H315        H  0.35902601  0.33068659  0.97634056     0.37900
H316        H  0.37753205  0.42465200  0.14107765     0.32300
H317        H  0.32796064  0.43389871  0.11553190     0.31200
H318        H  0.30801795  0.40129399  0.04491981     0.32900
H319        H  0.31567087  0.36708864  0.96866699     0.31800
H320        H  0.41325585  0.41443779  0.09551517     0.35800
H321        H  0.41558949  0.41725249  0.01005514     0.28600
H322        H  0.33496767  0.32544505  0.16716225     0.32800
H323        H  0.31234763  0.33716730  0.00301584     0.35700
H324        H  0.33406629  0.42022832  0.14501003     0.28300
H325        H  0.40855210  0.41054002  0.97397151     0.41100
H326        H  0.42218461  0.32132303  0.07685675     0.31200
H327        H  0.42713434  0.37591614  0.12684129     0.38800
H328        H  0.32057388  0.38645551  0.98404471     0.30700
H329        H  0.39650434  0.30892272  0.03314941     0.30700
H330        H  0.32211214  0.32486561  0.13450371     0.31000
Zr331      Zr  0.34940406  0.35264810  0.61910928     2.17500
O332        O  0.32692651  0.33276909  0.64853689    -0.51400
O333        O  0.35794936  0.35668131  0.67959786    -0.74600
O334        O  0.35637208  0.31917189  0.61554603    -0.81400
O335        O  0.31490140  0.39358617  0.61657263    -0.83100
O336        O  0.38481261  0.31626744  0.59098418    -0.78700
O337        O  0.31778457  0.36287584  0.62966881    -0.90400
O338        O  0.38024551  0.37870451  0.68389208    -0.76300
O339        O  0.38230143  0.35551432  0.61930377    -0.85800
O340        O  0.35575215  0.38483620  0.62762400    -0.85500
O341        O  0.35886687  0.34229163  0.56284772    -0.72300
O342        O  0.33459561  0.36907603  0.57238336    -0.84400
Zr343      Zr  0.38545854  0.39367366  0.52481010     2.26400
Zr344      Zr  0.39191436  0.34552630  0.56329540     2.06300
Zr345      Zr  0.34174815  0.40111733  0.58055371     2.10000
Zr346      Zr  0.38861483  0.38780434  0.62651531     1.78800
O347        O  0.31432606  0.40982652  0.54768927    -0.93200
O348        O  0.41702068  0.37474400  0.65073062    -0.41000
O349        O  0.37480373  0.40438784  0.57981581    -0.77600
O350        O  0.39981249  0.37746661  0.57216401    -0.96300
O351        O  0.37825138  0.36188707  0.51589474    -0.89600
O352        O  0.35236511  0.39149972  0.52488261    -0.92500
C353        C  0.36876778  0.36717315  0.69704688     1.01300
C354        C  0.30882150  0.37832584  0.62976404     1.14200
C355        C  0.37016905  0.30941649  0.60472539     1.05000
O356        O  0.41974677  0.33634575  0.59454791    -0.94600
O357        O  0.41847013  0.35130690  0.52681331    -0.90400
O358        O  0.41670139  0.38183296  0.51145671    -0.83500
C359        C  0.42519021  0.36606289  0.51313156     1.11600
O360        O  0.31941604  0.33801778  0.51975706    -0.96600
Zr361      Zr  0.34534516  0.35962126  0.51682159     1.88900
O362        O  0.37792771  0.39009415  0.46396252    -0.73200
O363        O  0.39419628  0.32110563  0.52030478    -0.52500
O364        O  0.35130164  0.33114607  0.48489583    -0.97200
O365        O  0.31676111  0.37310735  0.49420655    -0.54400
O366        O  0.35451908  0.36925193  0.45980904    -0.73800
C367        C  0.36662525  0.38013435  0.44656200     0.98600
O368        O  0.40628326  0.41769206  0.50289296    -0.62600
O369        O  0.33889068  0.42693919  0.62055159    -0.57400
O370        O  0.37763039  0.42664701  0.52750985    -0.94100
O371        O  0.34953881  0.43038808  0.55341675    -0.92500
O372        O  0.38341761  0.41725873  0.65563214    -0.92800
O373        O  0.41396414  0.40999858  0.62308261    -0.91600
C374        C  0.36381015  0.43662331  0.53746632     1.17400
H375        H  0.35049244  0.38923784  0.64897042     0.33400
H376        H  0.41308194  0.37910146  0.57271498     0.44200
H377        H  0.34709404  0.39923614  0.50698188     0.37700
H378        H  0.35529344  0.32967984  0.55798158     0.34200
H379        H  0.41387797  0.36174536  0.65684308     0.26000
H380        H  0.40306518  0.31194297  0.53003052     0.32000
H381        H  0.34557247  0.33321681  0.46204900     0.37900
H382        H  0.37182979  0.41551240  0.66894268     0.32300
H383        H  0.32816708  0.43427414  0.61206321     0.31200
H384        H  0.30856834  0.42005073  0.56094389     0.32900
H385        H  0.32051396  0.38455285  0.48179058     0.31800
H386        H  0.41389120  0.41436717  0.59885517     0.35800
H387        H  0.41721427  0.41743942  0.51827330     0.28600
H388        H  0.33408562  0.32509193  0.66511745     0.32800
H389        H  0.31506103  0.33657876  0.49577804     0.35700
H390        H  0.33453639  0.42134543  0.64245023     0.28300
H391        H  0.41088907  0.41312210  0.48044834     0.41100
H392        H  0.42421798  0.32502892  0.58270668     0.31200
H393        H  0.42567666  0.37361356  0.63103638     0.38800
H394        H  0.30999211  0.37757674  0.51475681     0.30700
H395        H  0.38206091  0.31473147  0.52104231     0.30700
H396        H  0.32235536  0.32395056  0.63106001     0.31000
Zr397      Zr  0.15132693  0.35800849  0.26594698     2.17500
O398        O  0.17389684  0.33835237  0.23632408    -0.51400
O399        O  0.14021506  0.36003819  0.20645680    -0.74600
O400        O  0.14631636  0.32427400  0.27379606    -0.81400
O401        O  0.18355434  0.40092292  0.26300514    -0.83100
O402        O  0.11820478  0.32146669  0.29952619    -0.78700
O403        O  0.18154170  0.37023181  0.24974007    -0.90400
O404        O  0.11786639  0.38226491  0.20302176    -0.76300
O405        O  0.11838209  0.35976333  0.26974000    -0.85800
O406        O  0.14314015  0.38986392  0.25630258    -0.85500
O407        O  0.14443405  0.34823369  0.32411173    -0.72300
O408        O  0.16696178  0.37620029  0.30881609    -0.84400
Zr409      Zr  0.11712766  0.39850022  0.36319327     2.26400
Zr410      Zr  0.11129544  0.35041332  0.32763419     2.06300
Zr411      Zr  0.15742360  0.40778384  0.30041677     2.10000
Zr412      Zr  0.11042566  0.39166495  0.26090520     1.78800
O413        O  0.18551630  0.41819735  0.32882534    -0.93200
O414        O  0.08207476  0.37736423  0.23992702    -0.41000
O415        O  0.12436536  0.40945025  0.30582789    -0.77600
O416        O  0.10181921  0.38190469  0.31757281    -0.96300
O417        O  0.12655735  0.36719688  0.37223443    -0.89600
O418        O  0.15013009  0.39812002  0.35798777    -0.92500
C419        C  0.12891443  0.37043481  0.18939391     1.01300
C420        C  0.18983074  0.38601501  0.24912352     1.14200
C421        C  0.13287823  0.31452499  0.28609225     1.05000
O422        O  0.08304698  0.33948512  0.30039923    -0.94600
O423        O  0.08513510  0.35645899  0.36534034    -0.90400
O424        O  0.08586513  0.38732431  0.37737899    -0.83500
C425        C  0.07782345  0.37137272  0.37724124     1.11600
O426        O  0.18530896  0.34537367  0.35711675    -0.96600
Zr427      Zr  0.15949944  0.36674133  0.36610555     1.88900
O428        O  0.12630730  0.39220620  0.42321268    -0.73200
O429        O  0.11080774  0.32602432  0.37152881    -0.52500
O430        O  0.15908449  0.33938268  0.40331046    -0.97200
O431        O  0.18828943  0.38214574  0.38187406    -0.54400
O432        O  0.15346163  0.37622090  0.42409317    -0.73800
C433        C  0.13991215  0.38431027  0.43906332     0.98600
O434        O  0.09973428  0.42209276  0.39479362    -0.62600
O435        O  0.15815064  0.43146560  0.25518183    -0.57400
O436        O  0.12311388  0.43175096  0.35882599    -0.94100
O437        O  0.14903041  0.43712981  0.32683472    -0.92500
O438        O  0.11492120  0.42023903  0.22803377    -0.92800
O439        O  0.08349630  0.41216067  0.26367761    -0.91600
C440        C  0.13548298  0.44253430  0.34582500     1.17400
H441        H  0.14744415  0.39419736  0.23409774     0.33400
H442        H  0.08849827  0.38312074  0.31772774     0.44200
H443        H  0.15566260  0.40627369  0.37465767     0.37700
H444        H  0.14861335  0.33583351  0.32966425     0.34200
H445        H  0.07952667  0.38367818  0.21769229     0.26000
H446        H  0.10006353  0.31818332  0.36545905     0.32000
H447        H  0.14582726  0.33752910  0.40896973     0.37900
H448        H  0.11614283  0.43007258  0.24556472     0.32300
H449        H  0.14778883  0.44006978  0.26038325     0.31200
H450        H  0.18896257  0.42977360  0.31649104     0.32900
H451        H  0.19355592  0.37428180  0.40047996     0.31800
H452        H  0.08321023  0.41653378  0.28777589     0.35800
H453        H  0.08715224  0.42237148  0.38467225     0.28600
H454        H  0.16666111  0.32990643  0.22153116     0.32800
H455        H  0.18731406  0.34542573  0.33189544     0.35700
H456        H  0.16946253  0.43876533  0.25987376     0.28300
H457        H  0.09801860  0.41688878  0.41824050     0.41100
H458        H  0.07561851  0.35087494  0.29614142     0.31200
H459        H  0.08576753  0.36458313  0.23344617     0.38800
H460        H  0.18448831  0.39371863  0.39362651     0.30700
H461        H  0.12178171  0.31813060  0.36672403     0.30700
H462        H  0.17950800  0.33026387  0.25425293     0.31000
Zr463      Zr  0.15018337  0.35691235  0.76523792     2.17500
O464        O  0.17327102  0.33674133  0.73834897    -0.51400
O465        O  0.14094500  0.36031503  0.70469899    -0.74600
O466        O  0.14288748  0.32365490  0.77006206    -0.81400
O467        O  0.18344642  0.39842741  0.76580399    -0.83100
O468        O  0.11270915  0.32274639  0.78588370    -0.78700
O469        O  0.18104212  0.36807770  0.75053997    -0.90400
O470        O  0.11644958  0.38016896  0.70168232    -0.76300
O471        O  0.11722057  0.35987930  0.76563638    -0.85800
O472        O  0.14337791  0.38909124  0.75684454    -0.85500
O473        O  0.14107295  0.34622516  0.82194733    -0.72300
O474        O  0.16504517  0.37307593  0.81176725    -0.84400
Zr475      Zr  0.11445288  0.39747364  0.86052166     2.26400
Zr476      Zr  0.10800244  0.34959337  0.82185862     2.06300
Zr477      Zr  0.15735459  0.40516889  0.80367360     2.10000
Zr478      Zr  0.11059508  0.39213725  0.75834163     1.78800
O479        O  0.18549046  0.41318908  0.83458582    -0.93200
O480        O  0.08049032  0.38214616  0.73702896    -0.41000
O481        O  0.12434865  0.40850579  0.80495354    -0.77600
O482        O  0.09987840  0.38162953  0.81331954    -0.96300
O483        O  0.12182093  0.36552280  0.86901541    -0.89600
O484        O  0.14751979  0.39529454  0.85988522    -0.92500
C485        C  0.12847633  0.36942579  0.68791021     1.01300
C486        C  0.18954419  0.38373815  0.75086964     1.14200
C487        C  0.12789362  0.31482527  0.77719947     1.05000
O488        O  0.07785801  0.34217988  0.79752659    -0.94600
O489        O  0.08293803  0.35465155  0.86203791    -0.90400
O490        O  0.08368657  0.38537996  0.87513969    -0.83500
C491        C  0.07586725  0.36934651  0.87515565     1.11600
O492        O  0.18093851  0.34199707  0.86377630    -0.96600
Zr493      Zr  0.15470856  0.36332139  0.86772345     1.88900
O494        O  0.12256887  0.39307638  0.92117059    -0.73200
O495        O  0.10840589  0.32238225  0.85969550    -0.52500
O496        O  0.15175295  0.33498647  0.90196025    -0.97200
O497        O  0.18139057  0.37952060  0.89114775    -0.54400
O498        O  0.14467604  0.37065435  0.92528235    -0.73800
C499        C  0.13307585  0.38205069  0.93859385     0.98600
O500        O  0.09375380  0.42084771  0.88511869    -0.62600
O501        O  0.15963202  0.43125776  0.76355813    -0.57400
O502        O  0.12126625  0.43074820  0.85733577    -0.94100
O503        O  0.14919079  0.43428564  0.83077723    -0.92500
O504        O  0.11877943  0.41907039  0.72320530    -0.92800
O505        O  0.08750992  0.41684528  0.76200257    -0.91600
C506        C  0.13500096  0.44066900  0.84686271     1.17400
H507        H  0.14832816  0.39350366  0.73516856     0.33400
H508        H  0.08659465  0.38326398  0.81346020     0.44200
H509        H  0.15292157  0.40289003  0.87765170     0.37700
H510        H  0.14463067  0.33352275  0.82671345     0.34200
H511        H  0.08282517  0.36981192  0.72668617     0.26000
H512        H  0.09893436  0.31395226  0.85013512     0.32000
H513        H  0.13825897  0.33364630  0.90596046     0.37900
H514        H  0.11132938  0.41782216  0.70198084     0.32300
H515        H  0.17193248  0.43676821  0.76810797     0.31200
H516        H  0.18894502  0.42559289  0.82547116     0.32900
H517        H  0.19104985  0.37861895  0.87308666     0.31800
H518        H  0.08695189  0.41993121  0.78678145     0.35800
H519        H  0.08240521  0.42075029  0.87082161     0.28600
H520        H  0.16640787  0.32879868  0.72206756     0.32800
H521        H  0.18592388  0.34393606  0.84026491     0.35700
H522        H  0.16086286  0.42560045  0.74051400     0.28300
H523        H  0.08987099  0.41584160  0.90781730     0.41100
H524        H  0.07535662  0.32927771  0.80523628     0.31200
H525        H  0.07300180  0.37941484  0.75781607     0.38800
H526        H  0.18589564  0.37139183  0.91004920     0.30700
H527        H  0.12035282  0.31603526  0.85509253     0.30700
H528        H  0.17765206  0.32820922  0.75675060     0.31000
Zr529      Zr  0.10731337  0.61639550  0.39802584     2.17500
O530        O  0.08843787  0.59406477  0.36668844    -0.51400
O531        O  0.11319852  0.62459487  0.33729848    -0.74600
O532        O  0.07403569  0.62374499  0.39820710    -0.81400
O533        O  0.14871667  0.58346126  0.40216186    -0.83100
O534        O  0.06876888  0.65069453  0.42701432    -0.78700
O535        O  0.11764062  0.58394143  0.39302775    -0.90400
O536        O  0.13174531  0.64997610  0.33470670    -0.76300
O537        O  0.10858502  0.64956819  0.39935595    -0.85800
O538        O  0.13908296  0.62441695  0.39004476    -0.85500
O539        O  0.09585658  0.62533112  0.45418970    -0.72300
O540        O  0.12372196  0.60184484  0.44484689    -0.84400
Zr541      Zr  0.14647538  0.65242576  0.49352859     2.26400
Zr542      Zr  0.09786700  0.65875562  0.45531637     2.06300
Zr543      Zr  0.15537296  0.61036945  0.43695418     2.10000
Zr544      Zr  0.14037791  0.65750589  0.39226084     1.78800
O545        O  0.16579217  0.58334894  0.46984400    -0.93200
O546        O  0.12553802  0.68560396  0.36999772    -0.41000
O547        O  0.15752632  0.64345155  0.43795456    -0.77600
O548        O  0.12973318  0.66734932  0.44716380    -0.96300
O549        O  0.11467968  0.64458017  0.50180727    -0.89600
O550        O  0.14506824  0.61931426  0.49305205    -0.92500
C551        C  0.12231829  0.63714034  0.32065883     1.01300
C552        C  0.13359461  0.57583219  0.39256049     1.14200
C553        C  0.06327425  0.63670381  0.40934029     1.05000
O554        O  0.08741602  0.68598326  0.42305012    -0.94600
O555        O  0.10433710  0.68648605  0.48985957    -0.90400
O556        O  0.13400229  0.68280454  0.50844475    -0.83500
C557        C  0.11889721  0.69219971  0.50569080     1.11600
O558        O  0.09268896  0.58493621  0.49389958    -0.96600
Zr559      Zr  0.11322634  0.61153199  0.50031520     1.88900
O560        O  0.14287393  0.64320433  0.55390960    -0.73200
O561        O  0.07419020  0.66002908  0.50013657    -0.52500
O562        O  0.08524196  0.61474885  0.53507068    -0.97200
O563        O  0.12780729  0.58320523  0.52233869    -0.54400
O564        O  0.12173824  0.62002707  0.55808513    -0.73800
C565        C  0.13280912  0.63183547  0.57136785     0.98600
O566        O  0.16961687  0.67157879  0.52199134    -0.62600
O567        O  0.18084015  0.60764911  0.39589129    -0.57400
O568        O  0.18007117  0.64858064  0.48410767    -0.94100
O569        O  0.18434410  0.61974879  0.46182579    -0.92500
O570        O  0.16948120  0.65491348  0.36070470    -0.92800
O571        O  0.16037230  0.68450314  0.39786958    -0.91600
C572        C  0.19042207  0.63497849  0.47423840     1.17400
H573        H  0.14397995  0.61964435  0.36870854     0.33400
H574        H  0.13120976  0.68067473  0.44679456     0.44200
H575        H  0.15284731  0.61396217  0.51077697     0.37700
H576        H  0.08326803  0.62130027  0.45792198     0.34200
H577        H  0.13175562  0.68804662  0.34768086     0.26000
H578        H  0.06861271  0.67257607  0.49783803     0.32000
H579        H  0.07648386  0.62189504  0.52050402     0.37900
H580        H  0.16930808  0.64233253  0.35054532     0.32300
H581        H  0.18691894  0.59565829  0.40164385     0.31200
H582        H  0.17477382  0.57697642  0.45459633     0.32900
H583        H  0.13842320  0.58734399  0.53639471     0.31800
H584        H  0.16795266  0.68181902  0.41854557     0.35800
H585        H  0.16944244  0.68371624  0.50979336     0.28600
H586        H  0.08168088  0.60133642  0.34894411     0.32800
H587        H  0.09113701  0.57966707  0.51733905     0.35700
H588        H  0.17493306  0.60553241  0.37330294     0.28300
H589        H  0.16450211  0.67419507  0.54513465     0.41100
H590        H  0.07892721  0.69260002  0.43889444     0.31200
H591        H  0.11283942  0.68175704  0.36367792     0.38800
H592        H  0.13350130  0.57732347  0.50191037     0.30700
H593        H  0.06430021  0.65146016  0.49268647     0.30700
H594        H  0.07879390  0.58973425  0.38303264     0.31000
Zr595      Zr  0.10315053  0.61656738  0.89915602     2.17500
O596        O  0.08133531  0.59537453  0.87203119    -0.51400
O597        O  0.10887355  0.62449450  0.83868222    -0.74600
O598        O  0.07118994  0.62790390  0.89915833    -0.81400
O599        O  0.14137179  0.57973556  0.90172123    -0.83100
O600        O  0.06824763  0.65421838  0.93084760    -0.78700
O601        O  0.11066218  0.58368148  0.89092722    -0.90400
O602        O  0.13044580  0.64731967  0.83572170    -0.76300
O603        O  0.10686779  0.64947635  0.90257702    -0.85800
O604        O  0.13534752  0.62211692  0.89030183    -0.85500
O605        O  0.09278866  0.62508522  0.95599442    -0.72300
O606        O  0.11881736  0.59990316  0.94413840    -0.84400
Zr607      Zr  0.14563635  0.64746497  0.99581752     2.26400
Zr608      Zr  0.09771592  0.65806117  0.95981150     2.06300
Zr609      Zr  0.15091350  0.60611748  0.93574220     2.10000
Zr610      Zr  0.13905735  0.65492132  0.89403574     1.78800
O611        O  0.16018866  0.57701714  0.96324735    -0.93200
O612        O  0.12572099  0.68332441  0.86983867    -0.41000
O613        O  0.15557856  0.63898053  0.93888862    -0.77600
O614        O  0.12994439  0.66454308  0.95068269    -0.96300
O615        O  0.11353426  0.64162212  0.00477074    -0.89600
O616        O  0.14160107  0.61459648  0.99262657    -0.92500
C617        C  0.11948668  0.63562263  0.82178588     1.01300
C618        C  0.12561945  0.57388237  0.89114687     1.14200
C619        C  0.06169190  0.64147950  0.91148286     1.05000
O620        O  0.09116357  0.68801586  0.93280126    -0.94600
O621        O  0.10506872  0.68253040  0.00044524    -0.90400
O622        O  0.13522513  0.67809825  0.01521503    -0.83500
C623        C  0.12000498  0.68747158  0.01571493     1.11600
O624        O  0.08599972  0.58473903  0.99421118    -0.96600
Zr625      Zr  0.10932715  0.60892904  0.00030226     1.88900
O626        O  0.14192440  0.63650382  0.05539143    -0.73200
O627        O  0.07323279  0.66026067  0.00295014    -0.52500
O628        O  0.08152132  0.61581091  0.03369363    -0.97200
O629        O  0.12083730  0.57853829  0.01889377    -0.54400
O630        O  0.12013154  0.61384230  0.05779630    -0.73800
C631        C  0.13177451  0.62473347  0.07182541     0.98600
O632        O  0.17009439  0.66445025  0.02524256    -0.62600
O633        O  0.17438111  0.60325785  0.89080986    -0.57400
O634        O  0.17860614  0.64102594  0.98514329    -0.94100
O635        O  0.18003712  0.61173874  0.96390451    -0.92500
O636        O  0.16738428  0.65024835  0.86095767    -0.92800
O637        O  0.16022006  0.68100037  0.89991556    -0.91600
C638        C  0.18760150  0.62643831  0.97565804     1.17400
H639        H  0.13978485  0.61721604  0.86872175     0.33400
H640        H  0.13227598  0.67772472  0.95208509     0.44200
H641        H  0.14904646  0.60817752  0.00963103     0.37700
H642        H  0.07988305  0.62212699  0.95949393     0.34200
H643        H  0.13216712  0.68506142  0.84751817     0.26000
H644        H  0.06539465  0.67082747  0.99524796     0.32000
H645        H  0.08330859  0.60929181  0.05597457     0.37900
H646        H  0.17698865  0.64729635  0.87832730     0.32300
H647        H  0.18311744  0.61358058  0.89491148     0.31200
H648        H  0.17031659  0.57210983  0.94860763     0.32900
H649        H  0.13243599  0.58102275  0.03159074     0.31800
H650        H  0.16520154  0.67976220  0.92354840     0.35800
H651        H  0.17123958  0.67644737  0.01275981     0.28600
H652        H  0.07509339  0.60264387  0.85364914     0.32800
H653        H  0.08403976  0.57961321  0.01765271     0.35700
H654        H  0.18146664  0.59190039  0.89698980     0.28300
H655        H  0.16494499  0.66772262  0.04807109     0.41100
H656        H  0.10348102  0.69367106  0.92882133     0.31200
H657        H  0.11287734  0.68000811  0.86346861     0.38800
H658        H  0.12497131  0.57241735  0.99744419     0.30700
H659        H  0.06545181  0.64912635  0.99948402     0.30700
H660        H  0.07159860  0.59285132  0.88944773     0.31000
Zr661      Zr  0.10492684  0.88581275  0.23306353     2.17500
O662        O  0.08598231  0.90983860  0.26029690    -0.51400
O663        O  0.11047814  0.87790022  0.29393452    -0.74600
O664        O  0.07181517  0.87864732  0.23555685    -0.81400
O665        O  0.14526213  0.92026434  0.21883286    -0.83100
O666        O  0.06591921  0.85225935  0.20572276    -0.78700
O667        O  0.11560940  0.91794644  0.23823702    -0.90400
O668        O  0.12705633  0.85104341  0.29631469    -0.76300
O669        O  0.10574487  0.85262923  0.23248757    -0.85800
O670        O  0.13662002  0.87733526  0.24080134    -0.85500
O671        O  0.09307652  0.87682017  0.17742456    -0.72300
O672        O  0.12122162  0.89943704  0.18525428    -0.84400
Zr673      Zr  0.14333931  0.84796924  0.13762286     2.26400
Zr674      Zr  0.09473126  0.84342958  0.17690419     2.06300
Zr675      Zr  0.15276007  0.89061665  0.19280396     2.10000
Zr676      Zr  0.13746608  0.84417665  0.23920184     1.78800
O677        O  0.16701403  0.91584268  0.15998632    -0.93200
O678        O  0.12335805  0.81545035  0.25986455    -0.41000
O679        O  0.15456586  0.85742562  0.19262228    -0.77600
O680        O  0.12645252  0.83385799  0.18473643    -0.96300
O681        O  0.11165283  0.85659533  0.12965599    -0.89600
O682        O  0.14211530  0.88109906  0.13741429    -0.92500
C683        C  0.11840666  0.86449168  0.31047848     1.01300
C684        C  0.13059407  0.92713827  0.23260969     1.14200
C685        C  0.06080321  0.86607636  0.22435880     1.05000
O686        O  0.08451036  0.81587989  0.20829591    -0.94600
O687        O  0.09973202  0.81696928  0.13875933    -0.90400
O688        O  0.13020732  0.81773238  0.12364027    -0.83500
C689        C  0.11418390  0.80997511  0.12425151     1.11600
O690        O  0.09103732  0.91722944  0.13688911    -0.96600
Zr691      Zr  0.11042788  0.88963291  0.13043325     1.88900
O692        O  0.14002809  0.85752988  0.07726148    -0.73200
O693        O  0.06970650  0.84237250  0.13499518    -0.52500
O694        O  0.08158038  0.88533122  0.09902069    -0.97200
O695        O  0.12485257  0.91728922  0.10561898    -0.54400
O696        O  0.11927159  0.88122805  0.07292310    -0.73800
C697        C  0.13025288  0.86920592  0.05976893     0.98600
O698        O  0.16561537  0.82841497  0.10711324    -0.62600
O699        O  0.17503158  0.89347738  0.23946153    -0.57400
O700        O  0.17701170  0.85089396  0.14829022    -0.94100
O701        O  0.18143345  0.88023354  0.16779501    -0.92500
O702        O  0.16628617  0.84831876  0.27078170    -0.92800
O703        O  0.15909291  0.81811765  0.23727258    -0.91600
C704        C  0.18746704  0.86456809  0.15707078     1.17400
H705        H  0.14157017  0.88212654  0.26202193     0.33400
H706        H  0.12754374  0.82048145  0.18517574     0.44200
H707        H  0.14982908  0.88605848  0.11925971     0.37700
H708        H  0.08049655  0.88108888  0.17411067     0.34200
H709        H  0.13011902  0.81230788  0.28129015     0.26000
H710        H  0.06054137  0.83366481  0.14504860     0.32000
H711        H  0.08360017  0.87404247  0.08503374     0.37900
H712        H  0.16335241  0.85742720  0.28900263     0.32300
H713        H  0.18273395  0.88207403  0.23816169     0.31200
H714        H  0.16858636  0.91113842  0.13627568     0.32900
H715        H  0.13591005  0.91281028  0.09296792     0.31800
H716        H  0.16220538  0.81680923  0.21257449     0.35800
H717        H  0.16682093  0.81695343  0.12122683     0.28600
H718        H  0.07925476  0.90363186  0.27939195     0.32800
H719        H  0.08827286  0.92149907  0.11316562     0.35700
H720        H  0.18339713  0.90361035  0.23194617     0.28300
H721        H  0.15928297  0.82441981  0.08584102     0.41100
H722        H  0.09542083  0.80748095  0.20848109     0.31200
H723        H  0.11082577  0.81914695  0.26779040     0.38800
H724        H  0.12995134  0.92401804  0.12559632     0.30700
H725        H  0.06365030  0.85473008  0.13623964     0.30700
H726        H  0.07632721  0.91333491  0.24332606     0.31000
Zr727      Zr  0.10353914  0.88645559  0.73218596     2.17500
O728        O  0.08455911  0.90776007  0.76616129    -0.51400
O729        O  0.10931394  0.87853571  0.79240078    -0.74600
O730        O  0.07071487  0.87795765  0.73277326    -0.81400
O731        O  0.14341431  0.92100030  0.72623791    -0.83100
O732        O  0.06725365  0.85027118  0.70565422    -0.78700
O733        O  0.11244388  0.91912046  0.73613062    -0.90400
O734        O  0.12914202  0.85406119  0.79573114    -0.76300
O735        O  0.10614274  0.85338314  0.73028897    -0.85800
O736        O  0.13557368  0.87949368  0.73989751    -0.85500
O737        O  0.09215965  0.87771800  0.67628264    -0.72300
O738        O  0.11943799  0.90180182  0.68583833    -0.84400
Zr739      Zr  0.14391225  0.85206881  0.63520973     2.26400
Zr740      Zr  0.09586424  0.84453031  0.67405512     2.06300
Zr741      Zr  0.15137826  0.89396636  0.69275217     2.10000
Zr742      Zr  0.13821522  0.84655977  0.73751588     1.78800
O743        O  0.16101575  0.91958081  0.65559513    -0.93200
O744        O  0.12635658  0.81772818  0.76224102    -0.41000
O745        O  0.15444738  0.86095763  0.69106737    -0.77600
O746        O  0.12791102  0.83646714  0.68191484    -0.96300
O747        O  0.11196988  0.85942707  0.62772604    -0.89600
O748        O  0.14118985  0.88513936  0.63676851    -0.92500
C749        C  0.11894734  0.86661295  0.80944213     1.01300
C750        C  0.12791087  0.92795030  0.73597297     1.14200
C751        C  0.06093661  0.86406513  0.72296745     1.05000
O752        O  0.08988661  0.81467060  0.70170081    -0.94600
O753        O  0.10125411  0.82069879  0.63085614    -0.90400
O754        O  0.13204064  0.82167756  0.61849851    -0.83500
C755        C  0.11594500  0.81415452  0.61656769     1.11600
O756        O  0.08595928  0.91703233  0.63570221    -0.96600
Zr757      Zr  0.10901485  0.89230614  0.63061455     1.88900
O758        O  0.14000152  0.86269002  0.57543842    -0.73200
O759        O  0.06976242  0.84289550  0.63445253    -0.52500
O760        O  0.08113098  0.88555770  0.59777312    -0.97200
O761        O  0.12090305  0.92214061  0.61036090    -0.54400
O762        O  0.11941135  0.88663860  0.57311403    -0.73800
C763        C  0.13039971  0.87498145  0.55904452     0.98600
O764        O  0.16697344  0.83432046  0.60297962    -0.62600
O765        O  0.17615501  0.90018304  0.73369146    -0.57400
O766        O  0.17739475  0.85581069  0.64631025    -0.94100
O767        O  0.18122026  0.88360470  0.67270212    -0.92500
O768        O  0.16749882  0.85373462  0.76551517    -0.92800
O769        O  0.16022635  0.82089240  0.73377269    -0.91600
C770        C  0.18759699  0.86870780  0.65911693     1.17400
H771        H  0.14028993  0.88438302  0.76121082     0.33400
H772        H  0.12957813  0.82314683  0.68118766     0.44200
H773        H  0.14867816  0.89089128  0.61907089     0.37700
H774        H  0.07937627  0.88124971  0.67288295     0.34200
H775        H  0.13238483  0.81665826  0.78504676     0.26000
H776        H  0.06187640  0.83274963  0.64356859     0.32000
H777        H  0.08338030  0.87314128  0.58770348     0.37900
H778        H  0.16532465  0.85146339  0.79035035     0.32300
H779        H  0.17979863  0.91324774  0.72930205     0.31200
H780        H  0.17037248  0.92635907  0.66917692     0.32900
H781        H  0.13275271  0.91924154  0.59862567     0.31800
H782        H  0.16795136  0.82390709  0.71339585     0.35800
H783        H  0.16840114  0.82239520  0.61561971     0.28600
H784        H  0.07850718  0.90002340  0.78409480     0.32800
H785        H  0.08394094  0.92170886  0.61196729     0.35700
H786        H  0.17013909  0.90036543  0.75661032     0.28300
H787        H  0.16090718  0.83096376  0.58106008     0.41100
H788        H  0.07678800  0.81193202  0.69620870     0.31200
H789        H  0.11318140  0.82039295  0.76754331     0.38800
H790        H  0.12459637  0.92873284  0.63153146     0.30700
H791        H  0.06248331  0.85439209  0.63838766     0.30700
H792        H  0.07437052  0.91192795  0.75087649     0.31000
Zr793      Zr  0.65738865  0.64060707  0.11506059     2.17500
O794        O  0.68161427  0.66057159  0.13802592    -0.51400
O795        O  0.64907876  0.63805545  0.17574232    -0.74600
O796        O  0.64939912  0.67411199  0.11240591    -0.81400
O797        O  0.69033245  0.59760108  0.11409396    -0.83100
O798        O  0.62109091  0.67662905  0.08722390    -0.78700
O799        O  0.68796715  0.62797276  0.12957500    -0.90400
O800        O  0.62652600  0.61633901  0.18127560    -0.76300
O801        O  0.62445752  0.63767764  0.11653117    -0.85800
O802        O  0.65072881  0.60846699  0.12439727    -0.85500
O803        O  0.64727622  0.65108472  0.05912702    -0.72300
O804        O  0.67174577  0.62377977  0.06868367    -0.84400
Zr805      Zr  0.62053817  0.59978006  0.02236229     2.26400
Zr806      Zr  0.61413950  0.64741642  0.06066415     2.06300
Zr807      Zr  0.66392434  0.59174790  0.07736166     2.10000
Zr808      Zr  0.61801277  0.60553204  0.12499789     1.78800
O809        O  0.69217506  0.58314837  0.04676949    -0.93200
O810        O  0.58922712  0.61812089  0.14827910    -0.41000
O811        O  0.63091328  0.58866098  0.07769182    -0.77600
O812        O  0.60645208  0.61551465  0.07044240    -0.96300
O813        O  0.62791719  0.63158953  0.01306677    -0.89600
O814        O  0.65360830  0.60188126  0.02176635    -0.92500
C815        C  0.63803893  0.62795869  0.19375327     1.01300
C816        C  0.69646957  0.61218701  0.12898836     1.14200
C817        C  0.63538810  0.68366394  0.10148226     1.05000
O818        O  0.58731869  0.65673592  0.09471268    -0.94600
O819        O  0.58677111  0.64075072  0.02683246    -0.90400
O820        O  0.58868944  0.61045482  0.01110179    -0.83500
C821        C  0.57997552  0.62604695  0.01339053     1.11600
O822        O  0.68796518  0.65397903  0.01668300    -0.96600
Zr823      Zr  0.66092946  0.63381688  0.01354367     1.88900
O824        O  0.62816642  0.60493026  0.96140104    -0.73200
O825        O  0.60975114  0.67172746  0.01742795    -0.52500
O826        O  0.65607958  0.66303158  0.98263912    -0.97200
O827        O  0.68863519  0.61998853  0.98805154    -0.54400
O828        O  0.65179907  0.62550929  0.95658579    -0.73800
C829        C  0.63949811  0.61494633  0.94368443     0.98600
O830        O  0.60117947  0.57620349  0.99555494    -0.62600
O831        O  0.66569967  0.56685204  0.12009632    -0.57400
O832        O  0.62751815  0.56663488  0.02602688    -0.94100
O833        O  0.65602684  0.56271166  0.04987721    -0.92500
O834        O  0.62487179  0.57747967  0.15817793    -0.92800
O835        O  0.59268636  0.58326585  0.12474980    -0.91600
C836        C  0.64145494  0.55655624  0.03504080     1.17400
H837        H  0.65602366  0.60404223  0.14576875     0.33400
H838        H  0.59321802  0.61377665  0.07183108     0.44200
H839        H  0.65879646  0.59422513  0.00384083     0.37700
H840        H  0.65065353  0.66378818  0.05419585     0.34200
H841        H  0.58869999  0.61339967  0.17226166     0.26000
H842        H  0.60013846  0.68003500  0.02720720     0.32000
H843        H  0.64303668  0.66258751  0.97483295     0.37900
H844        H  0.61961341  0.57980706  0.18132316     0.32300
H845        H  0.65357970  0.56048129  0.11885059     0.31200
H846        H  0.68795292  0.57682114  0.02567008     0.32900
H847        H  0.68427181  0.60920370  0.97467562     0.31800
H848        H  0.59331758  0.57752887  0.10168366     0.35800
H849        H  0.59034969  0.57460569  0.01100503     0.28600
H850        H  0.67558563  0.66814128  0.15610377     0.32800
H851        H  0.69168903  0.65643308  0.99252706     0.35700
H852        H  0.67470089  0.55782545  0.11050733     0.28300
H853        H  0.59613850  0.58201470  0.97435277     0.41100
H854        H  0.58079770  0.66608356  0.08029288     0.31200
H855        H  0.59150039  0.63161433  0.15063271     0.38800
H856        H  0.69545417  0.61446344  0.00771220     0.30700
H857        H  0.62128343  0.67913314  0.01800101     0.30700
H858        H  0.68472537  0.66946125  0.11933711     0.31000
Zr859      Zr  0.65579666  0.64306830  0.61617415     2.17500
O860        O  0.67816374  0.66296332  0.64508641    -0.51400
O861        O  0.64607593  0.64002470  0.67636074    -0.74600
O862        O  0.64896191  0.67662269  0.61075555    -0.81400
O863        O  0.69003605  0.60181408  0.61584600    -0.83100
O864        O  0.62080513  0.67930332  0.58522362    -0.78700
O865        O  0.68670447  0.63216851  0.63077369    -0.90400
O866        O  0.62396405  0.61779105  0.68098506    -0.76300
O867        O  0.62292089  0.64048265  0.61500888    -0.85800
O868        O  0.64895908  0.61094142  0.62567238    -0.85500
O869        O  0.64748807  0.65321335  0.55891728    -0.72300
O870        O  0.67137282  0.62586063  0.57147676    -0.84400
Zr871      Zr  0.62156504  0.60202315  0.52156162     2.26400
Zr872      Zr  0.61438727  0.65004510  0.55803598     2.06300
Zr873      Zr  0.66345281  0.59390263  0.58026523     2.10000
Zr874      Zr  0.61615441  0.60834569  0.62341461     1.78800
O875        O  0.69129182  0.58293410  0.55107978    -0.93200
O876        O  0.58780476  0.62252729  0.64541789    -0.41000
O877        O  0.63043370  0.59120122  0.57785424    -0.77600
O878        O  0.60622900  0.61823746  0.56764616    -0.96300
O879        O  0.62929483  0.63369112  0.51225215    -0.89600
O880        O  0.65458255  0.60365536  0.52355924    -0.92500
C881        C  0.63512401  0.62960227  0.69400345     1.01300
C882        C  0.69570875  0.61673865  0.63038999     1.14200
C883        C  0.63523911  0.68628271  0.59911835     1.05000
O884        O  0.58618992  0.65725551  0.58993854    -0.94600
O885        O  0.58891065  0.64416508  0.51928372    -0.90400
O886        O  0.59068664  0.61345190  0.50630790    -0.83500
C887        C  0.58232837  0.62926327  0.50633258     1.11600
O888        O  0.68875944  0.65579748  0.52333541    -0.96600
Zr889      Zr  0.66223435  0.63544736  0.51500233     1.88900
O890        O  0.62993848  0.60693343  0.46118308    -0.73200
O891        O  0.61096638  0.67517392  0.51607192    -0.52500
O892        O  0.66001015  0.66374708  0.48040935    -0.97200
O893        O  0.69010724  0.62034131  0.49282199    -0.54400
O894        O  0.65361736  0.62750655  0.45724054    -0.73800
C895        C  0.64139610  0.61696435  0.44388678     0.98600
O896        O  0.60200971  0.57802038  0.49660049    -0.62600
O897        O  0.66421897  0.56947895  0.62407534    -0.57400
O898        O  0.62861902  0.56895269  0.52435556    -0.94100
O899        O  0.65574652  0.56461027  0.55308781    -0.92500
O900        O  0.62028559  0.57967448  0.65627909    -0.92800
O901        O  0.59011669  0.58705043  0.61858763    -0.91600
C902        C  0.64188693  0.55867317  0.53570871     1.17400
H903        H  0.65375673  0.60666270  0.64752521     0.33400
H904        H  0.59294342  0.61672365  0.56748267     0.44200
H905        H  0.66005030  0.59574530  0.50627467     0.37700
H906        H  0.65111891  0.66581491  0.55371781     0.34200
H907        H  0.58458832  0.61505774  0.66607215     0.26000
H908        H  0.60139696  0.68352606  0.52586565     0.32000
H909        H  0.64661257  0.66519856  0.47554730     0.37900
H910        H  0.62503815  0.57056676  0.63938912     0.32300
H911        H  0.67389119  0.56068650  0.61611174     0.31200
H912        H  0.69692048  0.57385105  0.56726707     0.32900
H913        H  0.68577632  0.60960150  0.47928520     0.31800
H914        H  0.58904263  0.58458453  0.59363212     0.35800
H915        H  0.59092482  0.57727337  0.51163754     0.28600
H916        H  0.67094762  0.67030125  0.66197200     0.32800
H917        H  0.69487979  0.65674817  0.50055840     0.35700
H918        H  0.66961274  0.57531481  0.64473457     0.28300
H919        H  0.59743821  0.58318679  0.47448916     0.41100
H920        H  0.58190724  0.66930405  0.58030723     0.31200
H921        H  0.59171275  0.63468144  0.65468729     0.38800
H922        H  0.69612080  0.61477118  0.51333312     0.30700
H923        H  0.62264177  0.68232602  0.51737780     0.30700
H924        H  0.68248054  0.67207928  0.62764075     0.31000
Zr925      Zr  0.85352873  0.64449391  0.26548738     2.17500
O926        O  0.83175438  0.66439443  0.23409441    -0.51400
O927        O  0.86247383  0.64029274  0.20504028    -0.74600
O928        O  0.86016997  0.67801222  0.26982914    -0.81400
O929        O  0.82057123  0.60241226  0.26744661    -0.83100
O930        O  0.88998050  0.67998563  0.28765601    -0.78700
O931        O  0.82205145  0.63342364  0.25606414    -0.90400
O932        O  0.88533640  0.61863091  0.20121919    -0.76300
O933        O  0.88647022  0.64191491  0.26534331    -0.85800
O934        O  0.86071273  0.61237082  0.25770213    -0.85500
O935        O  0.86260184  0.65517191  0.32176805    -0.72300
O936        O  0.83881109  0.62788536  0.31212103    -0.84400
Zr937      Zr  0.89001651  0.60466212  0.36139038     2.26400
Zr938      Zr  0.89575352  0.65223578  0.32114656     2.06300
Zr939      Zr  0.84702954  0.59589647  0.30488951     2.10000
Zr940      Zr  0.89355508  0.60973680  0.25880782     1.78800
O941        O  0.81944547  0.58842396  0.33843676    -0.93200
O942        O  0.92175786  0.62317068  0.23471360    -0.41000
O943        O  0.88017658  0.59332600  0.30627398    -0.77600
O944        O  0.90428748  0.62035639  0.31328803    -0.96300
O945        O  0.88191215  0.63642417  0.36906537    -0.89600
O946        O  0.85689792  0.60595210  0.36066017    -0.92500
C947        C  0.87361778  0.62988694  0.18778902     1.01300
C948        C  0.81380145  0.61762178  0.25513368     1.14200
C949        C  0.87478427  0.68733362  0.27735646     1.05000
O950        O  0.92484507  0.66005393  0.29271399    -0.94600
O951        O  0.92188976  0.64707232  0.35909857    -0.90400
O952        O  0.92118474  0.61652146  0.37419090    -0.83500
C953        C  0.92919017  0.63247592  0.37256434     1.11600
O954        O  0.82122573  0.65725038  0.36424658    -0.96600
Zr955      Zr  0.84888039  0.63775939  0.36770449     1.88900
O956        O  0.88258790  0.61005329  0.42206743    -0.73200
O957        O  0.89640148  0.67944877  0.35806196    -0.52500
O958        O  0.84981203  0.66718699  0.39822521    -0.97200
O959        O  0.82277212  0.62098662  0.39314547    -0.54400
O960        O  0.85964627  0.63163259  0.42516194    -0.73800
C961        C  0.87182107  0.62099850  0.43894009     0.98600
O962        O  0.91032357  0.58102680  0.38660708    -0.62600
O963        O  0.84406744  0.56977092  0.26566464    -0.57400
O964        O  0.88310798  0.57150853  0.36004046    -0.94100
O965        O  0.85625038  0.56656037  0.33089108    -0.92500
O966        O  0.88740674  0.58115762  0.22768799    -0.92800
O967        O  0.91915912  0.58755828  0.26079344    -0.91600
C968        C  0.87024653  0.56093049  0.34851441     1.17400
H969        H  0.85567795  0.60781573  0.23637420     0.33400
H970        H  0.91758447  0.61890922  0.31296048     0.44200
H971        H  0.85185918  0.59811135  0.37863544     0.37700
H972        H  0.85898961  0.66781902  0.32655461     0.34200
H973        H  0.91811001  0.63580885  0.22696989     0.26000
H974        H  0.89526011  0.67440237  0.38172897     0.32000
H975        H  0.86299268  0.66878082  0.40454303     0.37900
H976        H  0.88206071  0.57261459  0.24512059     0.32300
H977        H  0.83094575  0.56590593  0.26757318     0.31200
H978        H  0.82339560  0.57850396  0.35464799     0.32900
H979        H  0.81622760  0.63022916  0.40756340     0.31800
H980        H  0.92362923  0.58791363  0.28484674     0.35800
H981        H  0.92173321  0.58102597  0.37237339     0.28600
H982        H  0.83933170  0.67189384  0.21791113     0.32800
H983        H  0.81766300  0.65705067  0.33966644     0.35700
H984        H  0.84514993  0.57522912  0.24229197     0.28300
H985        H  0.91415963  0.58601187  0.40917743     0.41100
H986        H  0.92902184  0.67158516  0.30405112     0.31200
H987        H  0.92994737  0.62528799  0.25469630     0.38800
H988        H  0.82826465  0.61222921  0.41007595     0.30700
H989        H  0.90931120  0.68401655  0.35657538     0.30700
H990        H  0.82681070  0.67337874  0.25103626     0.31000
Zr991      Zr  0.85425556  0.64779301  0.76610745     2.17500
O992        O  0.83349355  0.66918651  0.73570290    -0.51400
O993        O  0.86350701  0.64543197  0.70549866    -0.74600
O994        O  0.86233779  0.68086996  0.77237581    -0.81400
O995        O  0.81858976  0.60870209  0.76780293    -0.83100
O996        O  0.89099752  0.68202028  0.79633804    -0.78700
O997        O  0.82211440  0.63949059  0.75576543    -0.90400
O998        O  0.88607987  0.62359485  0.70069866    -0.76300
O999        O  0.88697910  0.64311702  0.76563635    -0.85800
O1000       O  0.85911995  0.61533522  0.75625116    -0.85500
O1001       O  0.86400168  0.65688125  0.82275613    -0.72300
O1002       O  0.83890011  0.63113497  0.81212317    -0.84400
Zr1003     Zr  0.88827789  0.60354894  0.85878039     2.26400
Zr1004     Zr  0.89680839  0.65185563  0.82213516     2.06300
Zr1005     Zr  0.84479117  0.59876034  0.80295165     2.10000
Zr1006     Zr  0.89169758  0.61062950  0.75670733     1.78800
O1007       O  0.81686196  0.59165232  0.83581347    -0.93200
O1008       O  0.92208560  0.62001422  0.73547358    -0.41000
O1009       O  0.87764576  0.59377889  0.80310531    -0.77600
O1010       O  0.90320714  0.61959792  0.81153880    -0.96300
O1011       O  0.88249900  0.63560138  0.86908319    -0.89600
O1012       O  0.85535412  0.60750401  0.85890014    -0.92500
C1013       C  0.87503889  0.63569649  0.68785798     1.01300
C1014       C  0.81284008  0.62430206  0.75538653     1.14200
C1015       C  0.87662029  0.68975989  0.78315312     1.05000
O1016       O  0.92512623  0.66146038  0.79288183    -0.94600
O1017       O  0.92323864  0.64343668  0.85700865    -0.90400
O1018       O  0.92035033  0.61279282  0.87062859    -0.83500
C1019       C  0.92949235  0.62810987  0.86942857     1.11600
O1020       O  0.82444494  0.66224782  0.86520590    -0.96600
Zr1021     Zr  0.84974052  0.63970153  0.86795464     1.88900
O1022       O  0.88114436  0.60805833  0.91988006    -0.73200
O1023       O  0.89894110  0.67586244  0.86587297    -0.52500
O1024       O  0.85745555  0.66833273  0.89789082    -0.97200
O1025       O  0.82093587  0.62815639  0.89294738    -0.54400
O1026       O  0.85820977  0.62956286  0.92482200    -0.73800
C1027       C  0.87006236  0.61823742  0.93767946     0.98600
O1028       O  0.90689924  0.57826941  0.88310009    -0.62600
O1029       O  0.83941048  0.57404366  0.76162976    -0.57400
O1030       O  0.87903379  0.57092112  0.85691289    -0.94100
O1031       O  0.85173609  0.56832724  0.82821215    -0.92500
O1032       O  0.88212372  0.58499334  0.72028938    -0.92800
O1033       O  0.91419603  0.58528442  0.75680868    -0.91600
C1034       C  0.86527460  0.56143051  0.84565859     1.17400
H1035       H  0.85381828  0.61164640  0.73454950     0.33400
H1036       H  0.91637624  0.61728918  0.81029491     0.44200
H1037       H  0.84966112  0.59992878  0.87658544     0.37700
H1038       H  0.86097813  0.66954722  0.82852930     0.34200
H1039       H  0.92270603  0.61523994  0.71164974     0.26000
H1040       H  0.90068605  0.66903501  0.88784710     0.32000
H1041       H  0.86696611  0.66474043  0.91504254     0.37900
H1042       H  0.87803975  0.57516684  0.73655318     0.32300
H1043       H  0.82661313  0.56981134  0.76645939     0.31200
H1044       H  0.81714563  0.57801951  0.83946303     0.32900
H1045       H  0.82447780  0.61707032  0.90670718     0.31800
H1046       H  0.91743592  0.58348069  0.78135387     0.35800
H1047       H  0.91742514  0.57654974  0.86700288     0.28600
H1048       H  0.84143512  0.67654653  0.71990865     0.32800
H1049       H  0.82120122  0.66500393  0.88942261     0.35700
H1050       H  0.83860062  0.58035978  0.73896316     0.28300
H1051       H  0.91248001  0.58322584  0.90439469     0.41100
H1052       H  0.92818716  0.67367548  0.80296038     0.31200
H1053       H  0.92118774  0.63368161  0.73267138     0.38800
H1054       H  0.81395802  0.62313263  0.87321118     0.30700
H1055       H  0.91100901  0.68196293  0.86152199     0.30700
H1056       H  0.82896134  0.67815245  0.75306252     0.31000
Zr1057     Zr  0.65358155  0.85653053  0.02235797     2.17500
O1058       O  0.67553320  0.83508107  0.99549625    -0.51400
O1059       O  0.64362179  0.85983168  0.96250916    -0.74600
O1060       O  0.64542444  0.82336689  0.02745856    -0.81400
O1061       O  0.68891693  0.89662341  0.02132596    -0.83100
O1062       O  0.61798254  0.82131555  0.05611247    -0.78700
O1063       O  0.68469394  0.86639980  0.00641279    -0.90400
O1064       O  0.62238462  0.88311140  0.95845042    -0.76300
O1065       O  0.62075694  0.86060507  0.02460420    -0.85800
O1066       O  0.64794255  0.88898290  0.01338246    -0.85500
O1067       O  0.64499419  0.84648177  0.07944525    -0.72300
O1068       O  0.67006181  0.87295298  0.06654589    -0.84400
Zr1069     Zr  0.62089877  0.89879607  0.11812464     2.26400
Zr1070     Zr  0.61201895  0.85117607  0.08178272     2.06300
Zr1071     Zr  0.66311941  0.90526768  0.05873410     2.10000
Zr1072     Zr  0.61532475  0.89305875  0.01612449     1.78800
O1073       O  0.69011825  0.91409629  0.09234599    -0.93200
O1074       O  0.58615674  0.88134593  0.99355135    -0.41000
O1075       O  0.63020574  0.90940667  0.06170694    -0.77600
O1076       O  0.60515223  0.88330686  0.07169537    -0.96300
O1077       O  0.62776845  0.86676016  0.12718962    -0.89600
O1078       O  0.65396773  0.89558422  0.11534357    -0.92500
C1079       C  0.63296577  0.87074596  0.94516739     1.01300
C1080       C  0.69410848  0.88151990  0.00656115     1.14200
C1081       C  0.63176495  0.81410770  0.04017674     1.05000
O1082       O  0.58409099  0.84027011  0.05341445    -0.94600
O1083       O  0.58523364  0.85976063  0.11631522    -0.90400
O1084       O  0.58855871  0.89020786  0.13014806    -0.83500
C1085       C  0.57910341  0.87510432  0.12869953     1.11600
O1086       O  0.68580480  0.84100617  0.11439095    -0.96600
Zr1087     Zr  0.66065398  0.86335090  0.12271392     1.88900
O1088       O  0.62923476  0.89216481  0.17842979    -0.73200
O1089       O  0.60842831  0.82851639  0.12817272    -0.52500
O1090       O  0.65503290  0.83500471  0.15586230    -0.97200
O1091       O  0.69006907  0.87485661  0.14473021    -0.54400
O1092       O  0.65418803  0.87285978  0.18000093    -0.73800
C1093       C  0.64164082  0.88256885  0.19450809     0.98600
O1094       O  0.60419651  0.92295046  0.14949661    -0.62600
O1095       O  0.66920477  0.92909664  0.01534282    -0.57400
O1096       O  0.62760286  0.93193818  0.11175339    -0.94100
O1097       O  0.65449946  0.93550022  0.08183459    -0.92500
O1098       O  0.62178377  0.92157668  0.98416116    -0.92800
O1099       O  0.58967192  0.91504309  0.02158486    -0.91600
C1100       C  0.64062886  0.94196334  0.09883259     1.17400
H1101       H  0.65283550  0.89313826  0.99147004     0.33400
H1102       H  0.59196899  0.88548606  0.07083807     0.44200
H1103       H  0.65983526  0.90305928  0.13273222     0.37700
H1104       H  0.64831521  0.83375509  0.08456998     0.34200
H1105       H  0.58333609  0.88944470  0.97350805     0.26000
H1106       H  0.59896110  0.81973945  0.11970080     0.32000
H1107       H  0.66219861  0.83649279  0.17736515     0.37900
H1108       H  0.62129474  0.93158430  0.00151599     0.32300
H1109       H  0.65756044  0.93637464  0.01361201     0.31200
H1110       H  0.69986181  0.90499882  0.08603433     0.32900
H1111       H  0.68731845  0.88731579  0.15415817     0.31800
H1112       H  0.58899515  0.91784963  0.04646914     0.35800
H1113       H  0.59283898  0.92556543  0.13598168     0.28600
H1114       H  0.66830070  0.82750720  0.97915522     0.32800
H1115       H  0.69084610  0.83837799  0.13761021     0.35700
H1116       H  0.67814891  0.93761775  0.02628038     0.28300
H1117       H  0.59973421  0.91692286  0.17093914     0.41100
H1118       H  0.58375946  0.84707412  0.03121466     0.31200
H1119       H  0.58934953  0.86918455  0.98328805     0.38800
H1120       H  0.69768197  0.87731634  0.12397949     0.30700
H1121       H  0.62012947  0.82127430  0.12813031     0.30700
H1122       H  0.67955657  0.82633239  0.01384295     0.31000
Zr1123     Zr  0.65377683  0.85840078  0.52016368     2.17500
O1124       O  0.67858037  0.83834226  0.49882191    -0.51400
O1125       O  0.64415104  0.86188759  0.45983138    -0.74600
O1126       O  0.64572148  0.82507066  0.52078145    -0.81400
O1127       O  0.68880048  0.89844188  0.52666115    -0.83100
O1128       O  0.61753195  0.82271815  0.54668703    -0.78700
O1129       O  0.68418995  0.86994074  0.50317261    -0.90400
O1130       O  0.62097387  0.88330044  0.45723451    -0.76300
O1131       O  0.62100113  0.86280736  0.51898817    -0.85800
O1132       O  0.64837721  0.89098430  0.51372381    -0.85500
O1133       O  0.64328434  0.84727377  0.57546077    -0.72300
O1134       O  0.66821252  0.87338449  0.56851508    -0.84400
Zr1135     Zr  0.61761149  0.89866269  0.61630166     2.26400
Zr1136     Zr  0.61036860  0.85193688  0.57387651     2.06300
Zr1137     Zr  0.66191549  0.90589175  0.56231713     2.10000
Zr1138     Zr  0.61579731  0.89545414  0.51355686     1.78800
O1139       O  0.68899143  0.91319136  0.59689073    -0.93200
O1140       O  0.58550213  0.88683701  0.49125984    -0.41000
O1141       O  0.62901963  0.91046697  0.56221828    -0.77600
O1142       O  0.60352158  0.88441575  0.56677696    -0.96300
O1143       O  0.62387704  0.86637314  0.62303412    -0.89600
O1144       O  0.65058838  0.89514311  0.61700034    -0.92500
C1145       C  0.63207195  0.87169903  0.44335859     1.01300
C1146       C  0.69378840  0.88474347  0.50760173     1.14200
C1147       C  0.63169439  0.81565744  0.53166434     1.05000
O1148       O  0.58395545  0.84230174  0.53947799    -0.94600
O1149       O  0.58264975  0.85902358  0.60617735    -0.90400
O1150       O  0.58526790  0.88864682  0.62558397    -0.83500
C1151       C  0.57610328  0.87351049  0.62096395     1.11600
O1152       O  0.68185422  0.84015070  0.61866641    -0.96600
Zr1153     Zr  0.65671733  0.86278412  0.62305505     1.88900
O1154       O  0.62460029  0.89171036  0.67685288    -0.73200
O1155       O  0.60568748  0.82758763  0.61688084    -0.52500
O1156       O  0.64841577  0.83376373  0.65188400    -0.97200
O1157       O  0.68543339  0.87413194  0.64821786    -0.54400
O1158       O  0.64802066  0.87066176  0.68091079    -0.73800
C1159       C  0.63569735  0.88123428  0.69423653     0.98600
O1160       O  0.59936936  0.92218999  0.64636928    -0.62600
O1161       O  0.66536750  0.93151028  0.52136179    -0.57400
O1162       O  0.62576170  0.93176733  0.61399694    -0.94100
O1163       O  0.65432717  0.93517736  0.58976571    -0.92500
O1164       O  0.62682822  0.92169764  0.47931740    -0.92800
O1165       O  0.59371875  0.92115702  0.51526100    -0.91600
C1166       C  0.63985928  0.94161939  0.60494686     1.17400
H1167       H  0.65381218  0.89552390  0.49254767     0.33400
H1168       H  0.59037630  0.88672544  0.56502499     0.44200
H1169       H  0.65589411  0.90221037  0.63554770     0.37700
H1170       H  0.64640884  0.83441155  0.57960450     0.34200
H1171       H  0.58481648  0.89275683  0.46820426     0.26000
H1172       H  0.59600341  0.81949353  0.60705718     0.32000
H1173       H  0.65405857  0.83448150  0.67503408     0.37900
H1174       H  0.61938664  0.92139277  0.45795029     0.32300
H1175       H  0.67605661  0.93870555  0.52992318     0.31200
H1176       H  0.69477613  0.92390727  0.58494787     0.32900
H1177       H  0.68238958  0.88647856  0.65784060     0.31800
H1178       H  0.59861074  0.92960879  0.53304594     0.35800
H1179       H  0.58875930  0.92506137  0.63107127     0.28600
H1180       H  0.67325652  0.83157933  0.47908460     0.32800
H1181       H  0.68546841  0.83720037  0.64266384     0.35700
H1182       H  0.66987178  0.92582733  0.49975361     0.28300
H1183       H  0.59385619  0.91575679  0.66652960     0.41100
H1184       H  0.57961343  0.83064769  0.55051140     0.31200
H1185       H  0.58654088  0.87336190  0.48651300     0.38800
H1186       H  0.69355681  0.87685664  0.62824795     0.30700
H1187       H  0.61714239  0.81996689  0.61614006     0.30700
H1188       H  0.68065802  0.82877564  0.51687522     0.31000
Zr1189     Zr  0.85214893  0.85910027  0.36837518     2.17500
O1190       O  0.83087683  0.83941605  0.40114989    -0.51400
O1191       O  0.86257785  0.86178681  0.42858861    -0.74600
O1192       O  0.85798357  0.82546954  0.36080884    -0.81400
O1193       O  0.81723834  0.90016084  0.36684211    -0.83100
O1194       O  0.88646912  0.82303683  0.33628600    -0.78700
O1195       O  0.82056556  0.86944166  0.37985279    -0.90400
O1196       O  0.88480901  0.88391586  0.43169538    -0.76300
O1197       O  0.88507450  0.86149654  0.36587472    -0.85800
O1198       O  0.85924783  0.89107148  0.37776804    -0.85500
O1199       O  0.86011756  0.84955145  0.31068935    -0.72300
O1200       O  0.83668819  0.87676260  0.32360554    -0.84400
Zr1201     Zr  0.88688407  0.90057152  0.27268842     2.26400
Zr1202     Zr  0.89323936  0.85226440  0.30863401     2.06300
Zr1203     Zr  0.84469502  0.90860106  0.33262813     2.10000
Zr1204     Zr  0.89207110  0.89354190  0.37420519     1.78800
O1205       O  0.81822938  0.92037630  0.30024256    -0.93200
O1206       O  0.92029635  0.87959328  0.39741953    -0.41000
O1207       O  0.87781478  0.91101545  0.32899525    -0.77600
O1208       O  0.90187899  0.88378027  0.31868764    -0.96300
O1209       O  0.87863076  0.86917795  0.26300061    -0.89600
O1210       O  0.85370633  0.89932937  0.27564246    -0.92500
C1211       C  0.87387238  0.87209950  0.44550622     1.01300
C1212       C  0.81127215  0.88471403  0.37962908     1.14200
C1213       C  0.87169371  0.81590268  0.34892186     1.05000
O1214       O  0.92201461  0.84208795  0.33560706    -0.94600
O1215       O  0.91948680  0.85878057  0.27154413    -0.90400
O1216       O  0.91862885  0.88973906  0.25978343    -0.83500
C1217       C  0.92674827  0.87374596  0.25971120     1.11600
O1218       O  0.81699964  0.85008779  0.27243897    -0.96600
Zr1219     Zr  0.84569314  0.86768444  0.26666355     1.88900
O1220       O  0.87864732  0.89550923  0.21243218    -0.73200
O1221       O  0.89424810  0.82804196  0.26511482    -0.52500
O1222       O  0.84801251  0.83730181  0.23945075    -0.97200
O1223       O  0.81983171  0.88338899  0.23808006    -0.54400
O1224       O  0.85601551  0.87384243  0.20878230    -0.73800
C1225       C  0.86800428  0.88472600  0.19526745     0.98600
O1226       O  0.90544694  0.92386875  0.24247556    -0.62600
O1227       O  0.84197225  0.93211669  0.37732773    -0.57400
O1228       O  0.88066869  0.93370240  0.27858086    -0.94100
O1229       O  0.85426155  0.93862824  0.30948031    -0.92500
O1230       O  0.88721512  0.92263846  0.40471858    -0.92800
O1231       O  0.91893092  0.91390226  0.37044064    -0.91600
C1232       C  0.86820243  0.94433562  0.29169671     1.17400
H1233       H  0.85461391  0.89510115  0.39982341     0.33400
H1234       H  0.91517536  0.88507454  0.31911885     0.44200
H1235       H  0.84828276  0.90745359  0.25848411     0.37700
H1236       H  0.85625545  0.83711777  0.30515675     0.34200
H1237       H  0.91630283  0.86767290  0.40789686     0.26000
H1238       H  0.89207765  0.83463049  0.24301691     0.32000
H1239       H  0.84357609  0.83926022  0.21560268     0.37900
H1240       H  0.88474196  0.93199982  0.38647138     0.32300
H1241       H  0.82919906  0.93705257  0.37499646     0.31200
H1242       H  0.81489380  0.93220837  0.31161683     0.32900
H1243       H  0.82542047  0.89305243  0.22309664     0.31800
H1244       H  0.92094868  0.91589724  0.34547466     0.35800
H1245       H  0.91654693  0.92579389  0.25696052     0.28600
H1246       H  0.83876607  0.83152877  0.41617713     0.32800
H1247       H  0.81257183  0.84803350  0.24866659     0.35700
H1248       H  0.84186140  0.92520947  0.39944117     0.28300
H1249       H  0.91016074  0.91772487  0.22144531     0.41100
H1250       H  0.91853167  0.83877464  0.35952504     0.31200
H1251       H  0.92762863  0.87588460  0.37700381     0.38800
H1252       H  0.81349488  0.89040451  0.25653463     0.30700
H1253       H  0.90739918  0.82406880  0.26407662     0.30700
H1254       H  0.82533969  0.83076393  0.38437168     0.31000
Zr1255     Zr  0.85218863  0.86270710  0.86669925     2.17500
O1256       O  0.82831819  0.84191405  0.88925968    -0.51400
O1257       O  0.86199049  0.86473481  0.92704274    -0.74600
O1258       O  0.85963147  0.82914909  0.86174653    -0.81400
O1259       O  0.81809966  0.90399733  0.86699117    -0.83100
O1260       O  0.88680335  0.82668436  0.83244127    -0.78700
O1261       O  0.82160705  0.87382043  0.88379507    -0.90400
O1262       O  0.88342732  0.88755737  0.93230739    -0.76300
O1263       O  0.88509262  0.86556763  0.86599802    -0.85800
O1264       O  0.85867383  0.89481820  0.87643576    -0.85500
O1265       O  0.86108752  0.85375861  0.80945992    -0.72300
O1266       O  0.83712696  0.88012897  0.82128750    -0.84400
Zr1267     Zr  0.88772269  0.90516419  0.77308084     2.26400
Zr1268     Zr  0.89421268  0.85675676  0.80898718     2.06300
Zr1269     Zr  0.84455973  0.91210996  0.83049627     2.10000
Zr1270     Zr  0.89148407  0.89768196  0.87511113     1.78800
O1271       O  0.81759649  0.92041315  0.79594755    -0.93200
O1272       O  0.91979273  0.88406954  0.89864181    -0.41000
O1273       O  0.87764816  0.91502527  0.82922991    -0.77600
O1274       O  0.90221449  0.88844451  0.81975813    -0.96300
O1275       O  0.88018868  0.87366214  0.76272031    -0.89600
O1276       O  0.85458125  0.90358391  0.77374488    -0.92500
C1277       C  0.87269879  0.87514012  0.94497213     1.01300
C1278       C  0.81248999  0.88920000  0.88256822     1.14200
C1279       C  0.87289124  0.81958033  0.84816648     1.05000
O1280       O  0.92121513  0.84486914  0.83967929    -0.94600
O1281       O  0.92165873  0.86414942  0.77559564    -0.90400
O1282       O  0.91929435  0.89458137  0.76003648    -0.83500
C1283       C  0.92818233  0.87907053  0.76205119     1.11600
O1284       O  0.81960648  0.85261923  0.76228609    -0.96600
Zr1285     Zr  0.84726436  0.87187169  0.76467732     1.88900
O1286       O  0.88141810  0.90038300  0.71174704    -0.73200
O1287       O  0.89570861  0.83402684  0.76285756    -0.52500
O1288       O  0.84912082  0.84228570  0.73473724    -0.97200
O1289       O  0.82157432  0.88996549  0.74093157    -0.54400
O1290       O  0.85869160  0.87884347  0.70791667    -0.73800
C1291       C  0.87093724  0.88946572  0.69448378     0.98600
O1292       O  0.90656452  0.93006867  0.74850107    -0.62600
O1293       O  0.83808738  0.93611223  0.87291679    -0.57400
O1294       O  0.88105136  0.93808986  0.77828850    -0.94100
O1295       O  0.85443151  0.94240186  0.80876489    -0.92500
O1296       O  0.88595108  0.92680688  0.90517685    -0.92800
O1297       O  0.91830020  0.91814763  0.87307541    -0.91600
C1298       C  0.86846017  0.94843491  0.79161888     1.17400
H1299       H  0.85363991  0.89891424  0.89817879     0.33400
H1300       H  0.91546395  0.89012386  0.82060180     0.44200
H1301       H  0.84932289  0.91165968  0.75631501     0.37700
H1302       H  0.85739559  0.84122672  0.80419595     0.34200
H1303       H  0.91580713  0.87239467  0.91004252     0.26000
H1304       H  0.89936306  0.84116984  0.74206371     0.32000
H1305       H  0.86171445  0.84201661  0.72455308     0.37900
H1306       H  0.88506022  0.93636296  0.88677005     0.32300
H1307       H  0.84987303  0.94293845  0.87568589     0.31200
H1308       H  0.81923660  0.93373780  0.79021851     0.32900
H1309       H  0.81102551  0.88784726  0.75681220     0.31800
H1310       H  0.91788566  0.92385146  0.84981760     0.35800
H1311       H  0.91772006  0.93079246  0.76324207     0.28600
H1312       H  0.83445590  0.83404483  0.90691511     0.32800
H1313       H  0.81599870  0.85075122  0.78665755     0.35700
H1314       H  0.82968956  0.94501295  0.86111481     0.28300
H1315       H  0.91113143  0.92531645  0.72616603     0.41100
H1316       H  0.92515040  0.83377070  0.82656358     0.31200
H1317       H  0.92696184  0.87989575  0.87833538     0.38800
H1318       H  0.81812247  0.88348672  0.71949831     0.30700
H1319       H  0.90666633  0.82622259  0.76831990     0.30700
H1320       H  0.82515313  0.83337881  0.87028214     0.31000
Zr1321     Zr  0.60120176  0.11761780  0.14150495     2.17500
O1322       O  0.58125418  0.09568384  0.11153555    -0.51400
O1323       O  0.60590421  0.12607234  0.08045418    -0.74600
O1324       O  0.56815117  0.12554349  0.14388210    -0.81400
O1325       O  0.64069599  0.08200978  0.15017540    -0.83100
O1326       O  0.56423581  0.15286490  0.17214057    -0.78700
O1327       O  0.61024106  0.08478421  0.13619837    -0.90400
O1328       O  0.62430469  0.15155776  0.07762114    -0.76300
O1329       O  0.60324859  0.15077448  0.14306270    -0.85800
O1330       O  0.63301220  0.12504945  0.13183667    -0.85500
O1331       O  0.59082224  0.12654171  0.19835855    -0.72300
O1332       O  0.61786766  0.10284395  0.18771655    -0.84400
Zr1333     Zr  0.64236489  0.15307755  0.23558048     2.26400
Zr1334     Zr  0.59358440  0.15983874  0.19961391     2.06300
Zr1335     Zr  0.64948449  0.11064158  0.17815918     2.10000
Zr1336     Zr  0.63508936  0.15811802  0.13448985     1.78800
O1337       O  0.66330730  0.08512016  0.21083193    -0.93200
O1338       O  0.62248362  0.18720643  0.11184116    -0.41000
O1339       O  0.65241289  0.14370184  0.17947948    -0.77600
O1340       O  0.62530866  0.16827747  0.18997713    -0.96300
O1341       O  0.61068081  0.14554876  0.24542334    -0.89600
O1342       O  0.64032356  0.11994469  0.23479013    -0.92500
C1343       C  0.61451206  0.13894493  0.06369191     1.01300
C1344       C  0.62540853  0.07538395  0.13886941     1.14200
C1345       C  0.55806282  0.13894898  0.15524122     1.05000
O1346       O  0.58385449  0.18815087  0.16983845    -0.94600
O1347       O  0.60014202  0.18602415  0.23711848    -0.90400
O1348       O  0.63040997  0.18348097  0.25279909    -0.83500
C1349       C  0.61471660  0.19202495  0.25235897     1.11600
O1350       O  0.58885501  0.08520918  0.24046870    -0.96600
Zr1351     Zr  0.60855819  0.11258943  0.24375643     1.88900
O1352       O  0.63929934  0.14400536  0.29617657    -0.73200
O1353       O  0.56970156  0.16084897  0.24398515    -0.52500
O1354       O  0.57990180  0.11664766  0.27627816    -0.97200
O1355       O  0.62375479  0.08471960  0.26632390    -0.54400
O1356       O  0.61743586  0.12154286  0.30095933    -0.73800
C1357       C  0.62883299  0.13312423  0.31390675     0.98600
O1358       O  0.66641193  0.17213426  0.26158469    -0.62600
O1359       O  0.67122730  0.10629395  0.13075722    -0.57400
O1360       O  0.67567876  0.14827161  0.22550789    -0.94100
O1361       O  0.67892563  0.11993283  0.20058622    -0.92500
O1362       O  0.66351978  0.15313532  0.10183709    -0.92800
O1363       O  0.65609369  0.18435083  0.13992638    -0.91600
C1364       C  0.68549385  0.13463846  0.21413227     1.17400
H1365       H  0.63751742  0.12027874  0.11018166     0.33400
H1366       H  0.62680124  0.18161694  0.19016192     0.44200
H1367       H  0.64826309  0.11441706  0.25208092     0.37700
H1368       H  0.57821087  0.12276790  0.20285172     0.34200
H1369       H  0.62715579  0.18805221  0.08789598     0.26000
H1370       H  0.56077211  0.17039838  0.23586699     0.32000
H1371       H  0.58146560  0.12849552  0.28874594     0.37900
H1372       H  0.67316853  0.15083741  0.11946209     0.32300
H1373       H  0.67942112  0.11728794  0.13137357     0.31200
H1374       H  0.67155848  0.07870855  0.19428530     0.32900
H1375       H  0.63307752  0.08916281  0.28297573     0.31800
H1376       H  0.66280783  0.18195857  0.16172582     0.35800
H1377       H  0.66624080  0.18407123  0.24871740     0.28600
H1378       H  0.57423871  0.10309253  0.09433937     0.32800
H1379       H  0.58683753  0.08114816  0.26458886     0.35700
H1380       H  0.67925460  0.09581388  0.13816625     0.28300
H1381       H  0.66177150  0.17522115  0.28486707     0.41100
H1382       H  0.57052839  0.18956808  0.17545548     0.31200
H1383       H  0.60902171  0.18495192  0.10942236     0.38800
H1384       H  0.63112991  0.07990646  0.24678156     0.30700
H1385       H  0.56298915  0.14893378  0.24187388     0.30700
H1386       H  0.57189929  0.09150158  0.12858631     0.31000
Zr1387     Zr  0.60013976  0.11698595  0.64025493     2.17500
O1388       O  0.58110445  0.09457999  0.60949225    -0.51400
O1389       O  0.60445004  0.12650976  0.58023882    -0.74600
O1390       O  0.56690911  0.12374524  0.64231705    -0.81400
O1391       O  0.64102742  0.08307510  0.64588158    -0.83100
O1392       O  0.56139725  0.14933007  0.67483956    -0.78700
O1393       O  0.61038378  0.08478407  0.63276589    -0.90400
O1394       O  0.62267932  0.15210170  0.57732195    -0.76300
O1395       O  0.60033710  0.15007863  0.64431612    -0.85800
O1396       O  0.63153586  0.12599949  0.63074458    -0.85500
O1397       O  0.58941683  0.12382173  0.69767371    -0.72300
O1398       O  0.61800859  0.10201344  0.68438004    -0.84400
Zr1399     Zr  0.63928107  0.15144449  0.73793368     2.26400
Zr1400     Zr  0.59062180  0.15715495  0.70193632     2.06300
Zr1401     Zr  0.64920944  0.11158236  0.67560452     2.10000
Zr1402     Zr  0.63172999  0.15903207  0.63573388     1.78800
O1403       O  0.66377663  0.08737196  0.71051437    -0.93200
O1404       O  0.61563869  0.18730752  0.61767446    -0.41000
O1405       O  0.64938544  0.14462181  0.68044520    -0.77600
O1406       O  0.62200374  0.16710276  0.69285750    -0.96300
O1407       O  0.60808250  0.14209636  0.74660132    -0.89600
O1408       O  0.63944246  0.11835848  0.73333048    -0.92500
C1409       C  0.61312706  0.13921800  0.56338026     1.01300
C1410       C  0.62588133  0.07593529  0.63484972     1.14200
C1411       C  0.55605713  0.13595589  0.65561491     1.05000
O1412       O  0.57973421  0.18536178  0.67333092    -0.94600
O1413       O  0.59592255  0.18305327  0.74082338    -0.90400
O1414       O  0.62612821  0.18098005  0.75686504    -0.83500
C1415       C  0.61026493  0.18918217  0.75658589     1.11600
O1416       O  0.58955116  0.08121026  0.73275184    -0.96600
Zr1417     Zr  0.60794408  0.10916779  0.74113280     1.88900
O1418       O  0.63510446  0.14110126  0.79792493    -0.73200
O1419       O  0.56665796  0.15723940  0.74624432    -0.52500
O1420       O  0.57869314  0.11108251  0.77238930    -0.97200
O1421       O  0.62359360  0.08121434  0.76235514    -0.54400
O1422       O  0.61611711  0.11605893  0.79946213    -0.73800
C1423       C  0.62591802  0.12844765  0.81407760     0.98600
O1424       O  0.66212922  0.17047906  0.76751083    -0.62600
O1425       O  0.67220453  0.10627614  0.63049881    -0.57400
O1426       O  0.67293490  0.14841762  0.73022973    -0.94100
O1427       O  0.67815022  0.12670064  0.68897243    -0.92500
O1428       O  0.66017221  0.15717090  0.60200155    -0.92800
O1429       O  0.65254387  0.18549000  0.64014492    -0.91600
C1430       C  0.68361038  0.13935126  0.70968453     1.17400
H1431       H  0.63617676  0.12191669  0.60873732     0.33400
H1432       H  0.62297854  0.18045451  0.69424509     0.44200
H1433       H  0.64762032  0.11284633  0.75023052     0.37700
H1434       H  0.57699560  0.11934541  0.70163889     0.34200
H1435       H  0.62233036  0.19148506  0.59674373     0.26000
H1436       H  0.55782554  0.16706810  0.73892955     0.32000
H1437       H  0.57915746  0.12314497  0.78447005     0.37900
H1438       H  0.66800154  0.14803089  0.61449951     0.32300
H1439       H  0.67707967  0.09359648  0.63493224     0.31200
H1440       H  0.67022184  0.07925950  0.69379435     0.32900
H1441       H  0.63425498  0.08562383  0.77600503     0.31800
H1442       H  0.66070981  0.18239008  0.65983884     0.35800
H1443       H  0.66188902  0.18273889  0.75574275     0.28600
H1444       H  0.57366179  0.10186893  0.59274899     0.32800
H1445       H  0.58730524  0.07608752  0.75610742     0.35700
H1446       H  0.66507494  0.10516219  0.60888712     0.28300
H1447       H  0.65687753  0.17281113  0.79066322     0.41100
H1448       H  0.56698236  0.18725471  0.68216761     0.31200
H1449       H  0.60347733  0.18304272  0.60908248     0.38800
H1450       H  0.62924739  0.07558237  0.74163425     0.30700
H1451       H  0.55983212  0.14545936  0.74312247     0.30700
H1452       H  0.57204864  0.08974119  0.62650805     0.31000
Zr1453     Zr  0.60146482  0.38468544  0.48609975     2.17500
O1454       O  0.58089179  0.40761066  0.51246997    -0.51400
O1455       O  0.60585921  0.37771209  0.54702651    -0.74600
O1456       O  0.56905851  0.37539290  0.48713432    -0.81400
O1457       O  0.64088317  0.41958825  0.48070506    -0.83100
O1458       O  0.56493045  0.34874233  0.45703328    -0.78700
O1459       O  0.61008928  0.41740281  0.49216380    -0.90400
O1460       O  0.62638104  0.35386526  0.55178943    -0.76300
O1461       O  0.60423834  0.35154165  0.48629598    -0.85800
O1462       O  0.63339113  0.37800160  0.49612685    -0.85500
O1463       O  0.59096937  0.37464159  0.43034587    -0.72300
O1464       O  0.61768557  0.39940910  0.43956129    -0.84400
Zr1465     Zr  0.64335447  0.34948054  0.39343752     2.26400
Zr1466     Zr  0.59476634  0.34134801  0.43028124     2.06300
Zr1467     Zr  0.64953367  0.39205682  0.44919082     2.10000
Zr1468     Zr  0.63623567  0.34499135  0.49513114     1.78800
O1469       O  0.66146907  0.41999576  0.42134100    -0.93200
O1470       O  0.62220310  0.31674091  0.51820990    -0.41000
O1471       O  0.65338799  0.35906660  0.44926792    -0.77600
O1472       O  0.62692393  0.33409575  0.43983261    -0.96300
O1473       O  0.61130080  0.35583642  0.38385901    -0.89600
O1474       O  0.64008389  0.38243734  0.39314615    -0.92500
C1475       C  0.61570614  0.36623559  0.56466659     1.01300
C1476       C  0.62545457  0.42640001  0.49123317     1.14200
C1477       C  0.55889863  0.36225947  0.47552311     1.05000
O1478       O  0.58558941  0.31365620  0.46237855    -0.94600
O1479       O  0.60288311  0.31475781  0.39368259    -0.90400
O1480       O  0.63313497  0.31849425  0.37864003    -0.83500
C1481       C  0.61799927  0.30923010  0.37914633     1.11600
O1482       O  0.58620702  0.41467447  0.38826601    -0.96600
Zr1483     Zr  0.60801810  0.38877395  0.38450511     1.88900
O1484       O  0.64064226  0.35899781  0.33298724    -0.73200
O1485       O  0.57054611  0.33822771  0.38716277    -0.52500
O1486       O  0.57940744  0.38414711  0.35245146    -0.97200
O1487       O  0.62244621  0.41690161  0.36169333    -0.54400
O1488       O  0.61701981  0.37969689  0.32752717    -0.73800
C1489       C  0.62951535  0.36907062  0.31495030     0.98600
O1490       O  0.66723882  0.33208039  0.36256748    -0.62600
O1491       O  0.67284921  0.39374206  0.49437544    -0.57400
O1492       O  0.67622115  0.35433758  0.40675816    -0.94100
O1493       O  0.67792367  0.38490541  0.41943596    -0.92500
O1494       O  0.66516573  0.34926959  0.52630677    -0.92800
O1495       O  0.65781701  0.31886047  0.49600346    -0.91600
C1496       C  0.68544285  0.36917477  0.41312765     1.17400
H1497       H  0.63778797  0.38326344  0.51738713     0.33400
H1498       H  0.62900277  0.32082882  0.44029662     0.44200
H1499       H  0.64773958  0.38806295  0.37554196     0.37700
H1500       H  0.57820969  0.37809972  0.42629718     0.34200
H1501       H  0.62735157  0.31543273  0.54170783     0.26000
H1502       H  0.56146773  0.32954230  0.39755635     0.32000
H1503       H  0.58172127  0.38963917  0.32940677     0.37900
H1504       H  0.66232973  0.35853646  0.54430613     0.32300
H1505       H  0.68213237  0.38408066  0.48853318     0.31200
H1506       H  0.67319260  0.42271193  0.43348040     0.32900
H1507       H  0.63135241  0.41264094  0.34396988     0.31800
H1508       H  0.66229371  0.31789340  0.47197400     0.35800
H1509       H  0.66899061  0.32036059  0.37572013     0.28600
H1510       H  0.57427224  0.40101339  0.53124587     0.32800
H1511       H  0.58600171  0.42042861  0.36504227     0.35700
H1512       H  0.67930587  0.40566644  0.49016329     0.28300
H1513       H  0.66151649  0.32825325  0.34059862     0.41100
H1514       H  0.59687859  0.30578654  0.46313843     0.31200
H1515       H  0.60899693  0.31995395  0.52195245     0.38800
H1516       H  0.63030523  0.42144744  0.38068319     0.30700
H1517       H  0.56411576  0.35041977  0.38682180     0.30700
H1518       H  0.57128899  0.41055006  0.49506225     0.31000
Zr1519     Zr  0.60226479  0.38244364  0.98741737     2.17500
O1520       O  0.58265837  0.40518721  0.01664253    -0.51400
O1521       O  0.60785654  0.37435677  0.04774297    -0.74600
O1522       O  0.56955010  0.37376096  0.98951089    -0.81400
O1523       O  0.64165611  0.41767116  0.97735445    -0.83100
O1524       O  0.56472901  0.34709452  0.95981940    -0.78700
O1525       O  0.61138434  0.41504702  0.99292083    -0.90400
O1526       O  0.63008623  0.35203066  0.05139531    -0.63500
O1527       O  0.60505465  0.34935481  0.98683238    -0.85800
O1528       O  0.63444520  0.37586654  0.99446263    -0.85500
O1529       O  0.59042209  0.37298582  0.93228612    -0.72300
O1530       O  0.61749547  0.39718804  0.93967596    -0.84400
Zr1531     Zr  0.64182154  0.34722597  0.89112044     2.26400
Zr1532     Zr  0.59403291  0.33973183  0.93145027     2.06300
Zr1533     Zr  0.64957045  0.38984751  0.94614212     2.10000
Zr1534     Zr  0.63729616  0.34286911  0.99331421     1.78800
O1535       O  0.66002112  0.41602101  0.91116538    -0.93200
O1536       O  0.62428959  0.31556818  0.02176332    -0.41000
O1537       O  0.65317549  0.35686456  0.94593784    -0.77600
O1538       O  0.62624313  0.33216328  0.93886885    -0.96300
O1539       O  0.60969923  0.35397928  0.88379483    -0.89600
O1540       O  0.63882553  0.38027816  0.89094024    -0.92500
C1541       C  0.61871866  0.36357823  0.06492266     1.01300
C1542       C  0.62655241  0.42425932  0.98981982     1.14200
C1543       C  0.55905507  0.36077189  0.97824157     1.05000
O1544       O  0.58502657  0.31185662  0.96308972    -0.94600
O1545       O  0.60058821  0.31334472  0.89393386    -0.90400
O1546       O  0.63073066  0.31629761  0.87762516    -0.83500
C1547       C  0.61536411  0.30742558  0.87893058     1.11600
O1548       O  0.58495648  0.41300632  0.88837377    -0.96600
Zr1549     Zr  0.60656963  0.38690828  0.88520661     1.88900
O1550       O  0.63803237  0.35716989  0.83115520    -0.73200
O1551       O  0.56951022  0.33700511  0.88883389    -0.52500
O1552       O  0.57716979  0.38072861  0.85680820    -0.97200
O1553       O  0.61891015  0.41579642  0.86139947    -0.54400
O1554       O  0.61485175  0.37850177  0.82764436    -0.73800
C1555       C  0.62694286  0.36777469  0.81410655     0.98600
O1556       O  0.66446084  0.32913886  0.85841924    -0.62600
O1557       O  0.67354348  0.39462940  0.98924048    -0.57400
O1558       O  0.67519724  0.35123641  0.90077237    -0.94100
O1559       O  0.67864455  0.38057274  0.92093403    -0.92500
O1560       O  0.66781786  0.34794521  0.01815379    -0.92800
O1561       O  0.65761882  0.31573457  0.99009689    -0.91600
C1562       C  0.68513966  0.36522539  0.90951219     1.17400
H1563       H  0.63934408  0.38113840  0.01531962     0.33400
H1564       H  0.62796916  0.31886289  0.93911778     0.44200
H1565       H  0.64607056  0.38591846  0.87274073     0.37700
H1566       H  0.57764810  0.37661883  0.92904424     0.34200
H1567       H  0.63119966  0.31440782  0.04367345     0.26000
H1568       H  0.56131139  0.32711621  0.89796427     0.32000
H1569       H  0.57920216  0.36897971  0.84419770     0.37900
H1570       H  0.66758167  0.34119201  0.04044403     0.32300
H1571       H  0.67978689  0.38240415  0.99164327     0.31200
H1572       H  0.66991805  0.42188284  0.92490599     0.32900
H1573       H  0.62721677  0.41203722  0.84234324     0.31800
H1574       H  0.65635896  0.31104833  0.96633624     0.35800
H1575       H  0.66642771  0.31750752  0.87174313     0.28600
H1576       H  0.57673294  0.39841970  0.03600395     0.32800
H1577       H  0.58252175  0.41676738  0.86422623     0.35700
H1578       H  0.68283757  0.40267008  0.97777725     0.28300
H1579       H  0.65803333  0.32521814  0.83719375     0.41100
H1580       H  0.59681421  0.30512913  0.96732690     0.31200
H1581       H  0.61163229  0.31936814  0.02878726     0.38800
H1582       H  0.62733907  0.42050820  0.87936473     0.30700
H1583       H  0.56213212  0.34858027  0.89095183     0.30700
H1584       H  0.57244264  0.40822724  0.00054159     0.31000
Zr1585     Zr  0.40540445  0.61001996  0.48824938     2.17500
O1586       O  0.42451069  0.58642831  0.51679150    -0.51400
O1587       O  0.40013791  0.61739110  0.54912571    -0.74600
O1588       O  0.43841338  0.61781332  0.48890352    -0.81400
O1589       O  0.36497708  0.57594143  0.47822801    -0.83100
O1590       O  0.44292115  0.64517903  0.46057843    -0.78700
O1591       O  0.39518408  0.57776997  0.49437578    -0.90400
O1592       O  0.38045869  0.64196702  0.55317671    -0.76300
O1593       O  0.40367540  0.64316166  0.48855330    -0.85800
O1594       O  0.37358449  0.61769274  0.49641770    -0.85500
O1595       O  0.41670408  0.61974450  0.43239090    -0.72300
O1596       O  0.38915566  0.59650587  0.44076875    -0.84400
Zr1597     Zr  0.36562377  0.64793286  0.39338920     2.26400
Zr1598     Zr  0.41397108  0.65305394  0.43263135     2.06300
Zr1599     Zr  0.35737278  0.60476248  0.44881141     2.10000
Zr1600     Zr  0.37177340  0.65078175  0.49574061     1.78800
O1601       O  0.34550588  0.58050862  0.41153471    -0.93200
O1602       O  0.38595369  0.67904791  0.51741625    -0.41000
O1603       O  0.35516921  0.63781884  0.44887983    -0.77600
O1604       O  0.38212334  0.66186516  0.44076453    -0.96300
O1605       O  0.39746732  0.64013918  0.38512634    -0.89600
O1606       O  0.36745910  0.61475269  0.39294301    -0.92500
C1607       C  0.39054956  0.62918629  0.56651364     1.01300
C1608       C  0.37983038  0.56894107  0.49103601     1.14200
C1609       C  0.44875212  0.63112892  0.47796205     1.05000
O1610       O  0.42253891  0.68060415  0.46485139    -0.94600
O1611       O  0.40900643  0.67974721  0.39553144    -0.90400
O1612       O  0.37894100  0.67809296  0.37858784    -0.83500
C1613       C  0.39471079  0.68629389  0.38008579     1.11600
O1614       O  0.42134301  0.58119133  0.38619317    -0.96600
Zr1615     Zr  0.39946610  0.60714859  0.38559543     1.88900
O1616       O  0.36806254  0.63861195  0.33285874    -0.73200
O1617       O  0.43904160  0.65624918  0.39083311    -0.52500
O1618       O  0.42802396  0.61316762  0.35384581    -0.97200
O1619       O  0.38615761  0.57856064  0.36324095    -0.54400
O1620       O  0.39014296  0.61619295  0.32849426    -0.73800
C1621       C  0.37846312  0.62759979  0.31531267     0.98600
O1622       O  0.34354458  0.66836034  0.36400395    -0.62600
O1623       O  0.33387106  0.59931617  0.49303161    -0.57400
O1624       O  0.33198183  0.64532521  0.40460377    -0.94100
O1625       O  0.32782505  0.61748576  0.43141929    -0.92500
O1626       O  0.34327463  0.64597942  0.52824171    -0.92800
O1627       O  0.34937787  0.67620017  0.49486733    -0.91600
C1628       C  0.32161358  0.63267479  0.41821733     1.17400
H1629       H  0.36879108  0.61245862  0.51755723     0.33400
H1630       H  0.38078254  0.67522628  0.44109707     0.44200
H1631       H  0.35976048  0.60960431  0.37508328     0.37700
H1632       H  0.42937030  0.61590023  0.42852311     0.34200
H1633       H  0.37989513  0.68115019  0.53995844     0.26000
H1634       H  0.44677363  0.66651802  0.39960615     0.32000
H1635       H  0.42705208  0.62631717  0.34634441     0.37900
H1636       H  0.33914402  0.63335648  0.52192075     0.32300
H1637       H  0.32570723  0.58962710  0.48343356     0.31200
H1638       H  0.33597452  0.57408659  0.42555030     0.32900
H1639       H  0.37494025  0.58246480  0.35042374     0.31800
H1640       H  0.34862771  0.68002377  0.47038485     0.35800
H1641       H  0.34286519  0.67978307  0.37805326     0.28600
H1642       H  0.43090378  0.59289379  0.53576289     0.32800
H1643       H  0.42251879  0.57718438  0.36194400     0.35700
H1644       H  0.34030052  0.59311877  0.51248095     0.28300
H1645       H  0.34967042  0.67226737  0.34230345     0.41100
H1646       H  0.43453430  0.68452616  0.45476788     0.31200
H1647       H  0.39881893  0.67541482  0.52330847     0.38800
H1648       H  0.38135705  0.57192539  0.38379402     0.30700
H1649       H  0.44681174  0.64496868  0.39373565     0.30700
H1650       H  0.43442140  0.58311032  0.50022396     0.31000
Zr1651     Zr  0.40239846  0.60898830  0.98669398     2.17500
O1652       O  0.42152061  0.58662001  0.01836586    -0.51400
O1653       O  0.39941708  0.61820408  0.04715222    -0.74600
O1654       O  0.43577915  0.61511477  0.98247646    -0.81400
O1655       O  0.35936224  0.57859986  0.99241754    -0.83100
O1656       O  0.44075886  0.64138191  0.95088586    -0.78700
O1657       O  0.39075783  0.57746305  0.99636119    -0.90400
O1658       O  0.37965498  0.64272255  0.05093285    -0.76300
O1659       O  0.40197113  0.64211744  0.98282033    -0.85800
O1660       O  0.37114541  0.61820947  0.99743649    -0.85500
O1661       O  0.41246914  0.61624839  0.92878458    -0.72300
O1662       O  0.38406130  0.59418162  0.94316983    -0.84400
Zr1663     Zr  0.36127861  0.64481690  0.89262479     2.26400
Zr1664     Zr  0.41106239  0.64962207  0.92487139     2.06300
Zr1665     Zr  0.35298637  0.60417980  0.95347718     2.10000
Zr1666     Zr  0.37068846  0.65121872  0.99314202     1.78800
O1667       O  0.34124928  0.57544351  0.92909773    -0.93200
O1668       O  0.38680708  0.67837356  0.01501484    -0.41000
O1669       O  0.35167203  0.63733901  0.95015799    -0.77600
O1670       O  0.37987099  0.65968841  0.93600375    -0.96300
O1671       O  0.39243467  0.63538884  0.88171466    -0.89600
O1672       O  0.36200158  0.61165286  0.89578607    -0.92500
C1673       C  0.39010027  0.63023843  0.06443870     1.01300
C1674       C  0.37453850  0.57039445  0.00053740     1.14200
C1675       C  0.44643501  0.62763492  0.96946037     1.05000
O1676       O  0.42250302  0.67776200  0.95185685    -0.94600
O1677       O  0.40469889  0.67570790  0.88590440    -0.90400
O1678       O  0.37396436  0.67448605  0.87328604    -0.83500
C1679       C  0.38992027  0.68232145  0.87185718     1.11600
O1680       O  0.41126711  0.57392066  0.89451402    -0.96600
Zr1681     Zr  0.39328359  0.60238706  0.88600554     1.88900
O1682       O  0.36279244  0.63448337  0.83278280    -0.73200
O1683       O  0.43364261  0.64899179  0.87817722    -0.52500
O1684       O  0.42186945  0.60433026  0.85262573    -0.97200
O1685       O  0.37803364  0.57505278  0.86254489    -0.54400
O1686       O  0.38431148  0.61147338  0.82865840    -0.73800
C1687       C  0.37296278  0.62320588  0.81539997     0.98600
O1688       O  0.33812263  0.66459690  0.86462952    -0.62600
O1689       O  0.32771319  0.60638897  0.99502907    -0.57400
O1690       O  0.32830646  0.64188711  0.90812124    -0.94100
O1691       O  0.32498176  0.61168131  0.92292583    -0.92500
O1692       O  0.34193412  0.65000439  0.02605852    -0.92800
O1693       O  0.35274624  0.67982300  0.98729711    -0.91600
C1694       C  0.31827945  0.62778424  0.91639953     1.17400
H1695       H  0.36676351  0.61385826  0.01953328     0.33400
H1696       H  0.37893140  0.67306207  0.93492288     0.44200
H1697       H  0.35364293  0.60624595  0.87928172     0.37700
H1698       H  0.42481796  0.61171723  0.92410524     0.34200
H1699       H  0.38077168  0.68101252  0.03738419     0.26000
H1700       H  0.44382327  0.65714026  0.88590242     0.32000
H1701       H  0.41941254  0.59716007  0.83146811     0.37900
H1702       H  0.33283768  0.64424167  0.01040978     0.32300
H1703       H  0.31979895  0.59548202  0.99038091     0.31200
H1704       H  0.33021660  0.57235039  0.94319524     0.32900
H1705       H  0.36674725  0.57975482  0.85089115     0.31800
H1706       H  0.34363084  0.67716149  0.96898550     0.35800
H1707       H  0.33809295  0.67639639  0.87762933     0.28600
H1708       H  0.42897870  0.59399548  0.03467205     0.32800
H1709       H  0.41424531  0.56931775  0.87118437     0.35700
H1710       H  0.33342742  0.60365856  0.01764614     0.28300
H1711       H  0.34331686  0.66785035  0.84176243     0.41100
H1712       H  0.41130545  0.68551777  0.95553233     0.31200
H1713       H  0.39933853  0.67381523  0.02121658     0.38800
H1714       H  0.37334534  0.56819590  0.88294036     0.30700
H1715       H  0.43897181  0.63628867  0.87892436     0.30700
H1716       H  0.43055744  0.58159935  0.00156709     0.31000
Zr1717     Zr  0.40278187  0.87940809  0.14885057     2.17500
O1718       O  0.42317328  0.90259406  0.12270396    -0.51400
O1719       O  0.39853380  0.87037811  0.08872715    -0.74600
O1720       O  0.43584397  0.87113978  0.15016197    -0.81400
O1721       O  0.36107409  0.91252241  0.14763050    -0.83100
O1722       O  0.43989170  0.84502752  0.18264368    -0.78700
O1723       O  0.39183075  0.91088072  0.13500938    -0.90400
O1724       O  0.37796837  0.84662814  0.08582335    -0.76300
O1725       O  0.40092914  0.84629387  0.15216426    -0.85800
O1726       O  0.37106080  0.87176362  0.13995789    -0.85500
O1727       O  0.41295765  0.87130276  0.20620257    -0.72300
O1728       O  0.38564612  0.89491765  0.19338230    -0.84400
Zr1729     Zr  0.36099611  0.84533803  0.24482561     2.26400
Zr1730     Zr  0.41018867  0.83804111  0.20957617     2.06300
Zr1731     Zr  0.35403136  0.88654490  0.18487828     2.10000
Zr1732     Zr  0.36910397  0.83880535  0.14387838     1.78800
O1733       O  0.34420244  0.91379347  0.21711429    -0.93200
O1734       O  0.38360358  0.81037562  0.12285908    -0.41000
O1735       O  0.35139593  0.85355391  0.18792064    -0.77600
O1736       O  0.37842910  0.82956340  0.20044986    -0.96300
O1737       O  0.39272722  0.85301555  0.25402829    -0.89600
O1738       O  0.36306113  0.87841299  0.24214099    -0.92500
C1739       C  0.38859716  0.85875965  0.07192347     1.01300
C1740       C  0.37598166  0.91917666  0.13468279     1.14200
C1741       C  0.44605893  0.85831874  0.16362008     1.05000
O1742       O  0.41705516  0.80934754  0.17910709    -0.94600
O1743       O  0.40414457  0.81309947  0.25078669    -0.90400
O1744       O  0.37336590  0.81533911  0.26297881    -0.83500
C1745       C  0.38913278  0.80703722  0.26461746     1.11600
O1746       O  0.41641850  0.91184456  0.24522323    -0.96600
Zr1747     Zr  0.39492201  0.88593487  0.25004910     1.88900
O1748       O  0.36359512  0.85557777  0.30451587    -0.73200
O1749       O  0.43498508  0.83516163  0.25187846    -0.52500
O1750       O  0.42265972  0.88205131  0.28500097    -0.97200
O1751       O  0.38165250  0.91550096  0.26824390    -0.54400
O1752       O  0.38496094  0.87857652  0.30763879    -0.73800
C1753       C  0.37358485  0.86710870  0.32138194     0.98600
O1754       O  0.33734948  0.82663424  0.27362756    -0.62600
O1755       O  0.32927680  0.89001170  0.14264689    -0.57400
O1756       O  0.32750013  0.84921624  0.23311035    -0.94100
O1757       O  0.32426804  0.87726002  0.20672217    -0.92500
O1758       O  0.34013058  0.84282378  0.11260532    -0.92800
O1759       O  0.34843818  0.81222887  0.14899234    -0.91600
C1760       C  0.31754894  0.86243946  0.22012612     1.17400
H1761       H  0.36658009  0.87637904  0.11813355     0.33400
H1762       H  0.37698909  0.81623172  0.20142370     0.44200
H1763       H  0.35508333  0.88418621  0.25900899     0.37700
H1764       H  0.42558402  0.87508657  0.21023246     0.34200
H1765       H  0.37653524  0.80717684  0.10191935     0.26000
H1766       H  0.44286065  0.82480494  0.24357463     0.32000
H1767       H  0.42400900  0.86843853  0.28805464     0.37900
H1768       H  0.33097578  0.84666796  0.13023992     0.32300
H1769       H  0.32364103  0.90229949  0.14749238     0.31200
H1770       H  0.33049999  0.91381487  0.21570904     0.32900
H1771       H  0.36972570  0.91234138  0.27943708     0.31800
H1772       H  0.34165273  0.81428493  0.17083379     0.35800
H1773       H  0.33620250  0.81524070  0.25962799     0.28600
H1774       H  0.43019194  0.89606734  0.10444663     0.32800
H1775       H  0.42255984  0.91015406  0.22263554     0.35700
H1776       H  0.33553284  0.89161185  0.12012302     0.28300
H1777       H  0.34295484  0.82237647  0.29555981     0.41100
H1778       H  0.42608881  0.80270561  0.19393525     0.31200
H1779       H  0.39589049  0.81429689  0.11409751     0.38800
H1780       H  0.37811610  0.92190420  0.24658095     0.30700
H1781       H  0.44270114  0.84641265  0.24885163     0.30700
H1782       H  0.43245895  0.90576149  0.14043606     0.31000
Zr1783     Zr  0.40128424  0.88107227  0.65101323     2.17500
O1784       O  0.42184377  0.90325268  0.62238179    -0.51400
O1785       O  0.39567703  0.87498413  0.58962617    -0.74600
O1786       O  0.43367038  0.87116525  0.64995790    -0.81400
O1787       O  0.36316936  0.91751826  0.66380058    -0.83100
O1788       O  0.43682576  0.84263972  0.67502263    -0.78700
O1789       O  0.39349712  0.91438618  0.64896304    -0.90400
O1790       O  0.37368013  0.85272292  0.58471514    -0.76300
O1791       O  0.39756425  0.84810995  0.64927728    -0.85800
O1792       O  0.36904035  0.87576729  0.64279226    -0.85500
O1793       O  0.41215467  0.86918364  0.70583315    -0.72300
O1794       O  0.38619625  0.89489209  0.69961587    -0.84400
Zr1795     Zr  0.35940803  0.84444220  0.74388754     2.26400
Zr1796     Zr  0.40745205  0.83605840  0.70400332     2.06300
Zr1797     Zr  0.35397985  0.88895570  0.69166657     2.10000
Zr1798     Zr  0.36533044  0.84285026  0.64168588     1.78800
O1799       O  0.34303120  0.91554603  0.72455933    -0.93200
O1800       O  0.37893240  0.81605769  0.61279570    -0.41000
O1801       O  0.34928996  0.85619804  0.68927169    -0.77600
O1802       O  0.37508270  0.83010643  0.69569205    -0.96300
O1803       O  0.39175000  0.84954916  0.75221876    -0.89600
O1804       O  0.36363510  0.87725582  0.74648055    -0.92500
C1805       C  0.38497172  0.86451039  0.57180642     1.01300
C1806       C  0.37854427  0.92404206  0.65252935     1.14200
C1807       C  0.44329773  0.85685717  0.65881377     1.05000
O1808       O  0.41448035  0.80882751  0.66940226    -0.94600
O1809       O  0.39936266  0.80864175  0.73872324    -0.90400
O1810       O  0.36951337  0.81276584  0.75621738    -0.83500
C1811       C  0.38445301  0.80309593  0.75388966     1.11600
O1812       O  0.42022103  0.90579279  0.75619132    -0.96600
Zr1813     Zr  0.39598437  0.88233092  0.75354466     1.88900
O1814       O  0.36266091  0.85269420  0.80494535    -0.73200
O1815       O  0.43215926  0.83076351  0.74562109    -0.52500
O1816       O  0.42322717  0.87308195  0.78660199    -0.97200
O1817       O  0.38420587  0.91206684  0.77429578    -0.54400
O1818       O  0.38513996  0.87446933  0.80993622    -0.73800
C1819       C  0.37317705  0.86336427  0.82274811     0.98600
O1820       O  0.33537328  0.82637816  0.77299274    -0.62600
O1821       O  0.33051608  0.89355325  0.64739327    -0.57400
O1822       O  0.32651460  0.85047517  0.73022985    -0.94100
O1823       O  0.32513807  0.88140219  0.71948541    -0.92500
O1824       O  0.33599013  0.84953600  0.61321245    -0.92800
O1825       O  0.34440794  0.81637134  0.64355787    -0.91600
C1826       C  0.31743349  0.86565835  0.72463916     1.17400
H1827       H  0.36445828  0.88173960  0.62214336     0.33400
H1828       H  0.37276603  0.81692463  0.69440720     0.44200
H1829       H  0.35634845  0.88273894  0.76470038     0.37700
H1830       H  0.42501661  0.87204418  0.70987915     0.34200
H1831       H  0.39159240  0.81997795  0.60612008     0.26000
H1832       H  0.43993134  0.82083836  0.73541765     0.32000
H1833       H  0.42010175  0.86078019  0.79658278     0.37900
H1834       H  0.33702693  0.84350994  0.59045123     0.32300
H1835       H  0.32274055  0.88225376  0.64860606     0.31200
H1836       H  0.33279866  0.92090822  0.71069075     0.32900
H1837       H  0.37339646  0.90897698  0.78896945     0.31800
H1838       H  0.33987370  0.81593192  0.66762366     0.35800
H1839       H  0.33356091  0.81518586  0.75869749     0.28600
H1840       H  0.42866248  0.89617233  0.60458162     0.32800
H1841       H  0.42062368  0.90974972  0.78054694     0.35700
H1842       H  0.32243826  0.90359341  0.65631784     0.28300
H1843       H  0.34107654  0.82168046  0.79453771     0.41100
H1844       H  0.42546682  0.80312738  0.68055537     0.31200
H1845       H  0.38089777  0.80670408  0.63125364     0.38800
H1846       H  0.37879986  0.91822089  0.75375617     0.30700
H1847       H  0.43993482  0.84206047  0.74434357     0.30700
H1848       H  0.43130044  0.90662362  0.63966851     0.31000
Zr1849     Zr  0.35154334  0.13804909  0.02082983     2.17500
O1850       O  0.33075892  0.15904302  0.98956749    -0.51400
O1851       O  0.36099543  0.13316552  0.96058608    -0.74600
O1852       O  0.35918494  0.17142752  0.02654779    -0.81400
O1853       O  0.31566322  0.09873680  0.02115452    -0.83100
O1854       O  0.38671288  0.17333158  0.05440265    -0.78700
O1855       O  0.31968044  0.12943363  0.00899952    -0.90400
O1856       O  0.38557140  0.11337443  0.95882818    -0.76300
O1857       O  0.38438993  0.13463718  0.02390922    -0.85800
O1858       O  0.35787369  0.10576499  0.01206535    -0.85500
O1859       O  0.35923194  0.14751137  0.07847573    -0.72300
O1860       O  0.33514708  0.12109422  0.06522569    -0.84400
Zr1861     Zr  0.38425566  0.09573333  0.11784921     2.26400
Zr1862     Zr  0.39225232  0.14366959  0.08133614     2.06300
Zr1863     Zr  0.34228856  0.08892305  0.05678062     2.10000
Zr1864     Zr  0.39060794  0.10231066  0.01632761     1.78800
O1865       O  0.31570584  0.07826637  0.09012348    -0.93200
O1866       O  0.42104611  0.11381881  0.99946676    -0.41000
O1867       O  0.37525940  0.08580137  0.06130065    -0.77600
O1868       O  0.40023336  0.11180216  0.07205653    -0.96300
O1869       O  0.37675403  0.12743393  0.12680909    -0.89600
O1870       O  0.35112210  0.09789152  0.11402589    -0.92500
C1871       C  0.37342434  0.12372855  0.94436230     1.01300
C1872       C  0.31015065  0.11441530  0.00837461     1.14200
C1873       C  0.37266511  0.18073448  0.03957087     1.05000
O1874       O  0.42104004  0.15298539  0.05339114    -0.94600
O1875       O  0.41803640  0.13649204  0.11874995    -0.90400
O1876       O  0.41605258  0.10576762  0.13195577    -0.83500
C1877       C  0.42477929  0.12137440  0.13118377     1.11600
O1878       O  0.31734093  0.15075237  0.11639890    -0.96600
Zr1879     Zr  0.34388824  0.12988800  0.12221077     1.88900
O1880       O  0.37479149  0.10054413  0.17783025    -0.73200
O1881       O  0.39403141  0.16750181  0.12547449    -0.52500
O1882       O  0.34754336  0.15870500  0.15403145    -0.97200
O1883       O  0.31594407  0.11526840  0.14514759    -0.54400
O1884       O  0.35171142  0.12198584  0.18049075    -0.73800
C1885       C  0.36345405  0.11099259  0.19453537     0.98600
O1886       O  0.40151145  0.07174844  0.14913534    -0.62600
O1887       O  0.33733852  0.06545372  0.01277540    -0.57400
O1888       O  0.37857800  0.06280301  0.10881269    -0.94100
O1889       O  0.35291716  0.05821809  0.07597252    -0.92500
O1890       O  0.38517481  0.07538088  0.98016294    -0.92800
O1891       O  0.41338023  0.07736361  0.02192942    -0.91600
C1892       C  0.36678924  0.05228040  0.09378745     1.17400
H1893       H  0.35340222  0.10167385  0.98998675     0.33400
H1894       H  0.41347283  0.10990887  0.07197917     0.44200
H1895       H  0.34538593  0.08998309  0.13113590     0.37700
H1896       H  0.35564270  0.16014647  0.08339755     0.34200
H1897       H  0.42507427  0.10556717  0.98055324     0.26000
H1898       H  0.40421016  0.17577039  0.11785091     0.32000
H1899       H  0.36020577  0.15800590  0.16374899     0.37900
H1900       H  0.37822531  0.06660515  0.99505414     0.32300
H1901       H  0.32462773  0.06081314  0.01703286     0.31200
H1902       H  0.31243151  0.06614722  0.07990612     0.32900
H1903       H  0.32019330  0.10437688  0.15874991     0.31800
H1904       H  0.41543027  0.07606689  0.04701987     0.35800
H1905       H  0.41310481  0.06981503  0.13589310     0.28600
H1906       H  0.33872645  0.16657686  0.97411908     0.32800
H1907       H  0.31178882  0.15152146  0.13968519     0.35700
H1908       H  0.33644673  0.07238882  0.99074181     0.28300
H1909       H  0.40550367  0.07761515  0.17085872     0.41100
H1910       H  0.42822284  0.14131361  0.05080507     0.31200
H1911       H  0.41856213  0.12592619  0.98806511     0.38800
H1912       H  0.30971387  0.10992625  0.12485006     0.30700
H1913       H  0.38264125  0.17508114  0.12259959     0.30700
H1914       H  0.32582437  0.16788318  0.00678441     0.31000
Zr1915     Zr  0.34719174  0.14001159  0.52073523     2.17500
O1916       O  0.32404743  0.16010162  0.49344164    -0.51400
O1917       O  0.35673160  0.13655540  0.46081787    -0.74600
O1918       O  0.35414334  0.17331607  0.52429182    -0.81400
O1919       O  0.31450476  0.09806783  0.52335030    -0.83100
O1920       O  0.38468037  0.17269520  0.53511781    -0.78700
O1921       O  0.31673738  0.12827013  0.50622683    -0.90400
O1922       O  0.37897993  0.11420422  0.45768352    -0.76300
O1923       O  0.38019255  0.13764320  0.52193443    -0.85800
O1924       O  0.35462033  0.10783351  0.51373576    -0.85500
O1925       O  0.35545221  0.15138748  0.57697603    -0.72300
O1926       O  0.33217467  0.12363134  0.56730447    -0.84400
Zr1927     Zr  0.38318236  0.10094493  0.61825990     2.26400
Zr1928     Zr  0.38853056  0.14855633  0.57797954     2.06300
Zr1929     Zr  0.34073664  0.09170349  0.56111596     2.10000
Zr1930     Zr  0.38746225  0.10553600  0.51569932     1.78800
O1931       O  0.31395808  0.08371312  0.59639262    -0.93200
O1932       O  0.41584458  0.11862916  0.49178336    -0.41000
O1933       O  0.37385897  0.08922292  0.56310693    -0.77600
O1934       O  0.39760027  0.11673978  0.57021175    -0.96300
O1935       O  0.37467502  0.13265410  0.62570638    -0.89600
O1936       O  0.35005430  0.10232693  0.61665441    -0.92500
C1937       C  0.36765686  0.12581918  0.44390920     1.01300
C1938       C  0.30834154  0.11257989  0.50760643     1.14200
C1939       C  0.36958604  0.18154131  0.52978362     1.05000
O1940       O  0.41781969  0.16283065  0.56145729    -0.94600
O1941       O  0.41485076  0.14344777  0.61524575    -0.90400
O1942       O  0.41427967  0.11298930  0.63094367    -0.83500
C1943       C  0.42216798  0.12898846  0.62909253     1.11600
O1944       O  0.31539172  0.15538755  0.61698663    -0.96600
Zr1945     Zr  0.34165047  0.13412691  0.62283553     1.88900
O1946       O  0.37437552  0.10613910  0.67849987    -0.73200
O1947       O  0.38271502  0.17456287  0.61632710    -0.52500
O1948       O  0.34608887  0.16300635  0.65425255    -0.97200
O1949       O  0.31279097  0.12080339  0.64436869    -0.54400
O1950       O  0.34843485  0.12407203  0.68058424    -0.73800
C1951       C  0.36137108  0.11462072  0.69488700     0.98600
O1952       O  0.40317629  0.07817124  0.64687547    -0.62600
O1953       O  0.33643953  0.06506151  0.52354754    -0.57400
O1954       O  0.37707185  0.06750518  0.61622435    -0.94100
O1955       O  0.35021753  0.06254731  0.58710809    -0.92500
O1956       O  0.38280683  0.07575238  0.48760692    -0.92800
O1957       O  0.41401764  0.08460785  0.51965975    -0.91600
C1958       C  0.36414952  0.05692330  0.60484393     1.17400
H1959       H  0.34976688  0.10307067  0.49240869     0.33400
H1960       H  0.41092419  0.11545663  0.56988614     0.44200
H1961       H  0.34478740  0.09464609  0.63462121     0.37700
H1962       H  0.35166863  0.16406286  0.58111299     0.34200
H1963       H  0.41735414  0.11255536  0.46915028     0.26000
H1964       H  0.38813555  0.17062260  0.63861103     0.32000
H1965       H  0.35382432  0.15965797  0.67438472     0.37900
H1966       H  0.37362602  0.06919508  0.50220982     0.32300
H1967       H  0.32393259  0.06029962  0.52924026     0.31200
H1968       H  0.30793081  0.07338125  0.58405400     0.32900
H1969       H  0.31615392  0.10842630  0.65379199     0.31800
H1970       H  0.41274933  0.07858483  0.54253548     0.35800
H1971       H  0.41448169  0.07725232  0.63245651     0.28600
H1972       H  0.33084518  0.16786592  0.47650496     0.32800
H1973       H  0.31074395  0.15745599  0.64066195     0.35700
H1974       H  0.33522078  0.07032568  0.50005012     0.28300
H1975       H  0.40728508  0.08409818  0.66847001     0.41100
H1976       H  0.42448110  0.15305714  0.54846122     0.31200
H1977       H  0.41267249  0.13169964  0.48610976     0.38800
H1978       H  0.30545754  0.11811729  0.62349579     0.30700
H1979       H  0.39102456  0.18452429  0.60786085     0.30700
H1980       H  0.31979426  0.16881565  0.51146960     0.31000
Zr1981     Zr  0.15227279  0.14297076  0.36501371     2.17500
O1982       O  0.17568907  0.16330638  0.38980807    -0.51400
O1983       O  0.14311158  0.13890557  0.42506809    -0.74600
O1984       O  0.14387153  0.17608051  0.36467517    -0.81400
O1985       O  0.18797278  0.10268285  0.36086478    -0.83100
O1986       O  0.11568253  0.17853295  0.33901358    -0.78700
O1987       O  0.18336355  0.13245261  0.37843776    -0.90400
O1988       O  0.12107900  0.11654921  0.42889003    -0.76300
O1989       O  0.11951447  0.13865332  0.36534045    -0.85800
O1990       O  0.14739878  0.11035570  0.37192209    -0.85500
O1991       O  0.14242198  0.15442622  0.30971454    -0.72300
O1992       O  0.16797172  0.12789638  0.31808957    -0.84400
Zr1993     Zr  0.11828897  0.10294487  0.26807772     2.26400
Zr1994     Zr  0.10960067  0.14952958  0.30980621     2.06300
Zr1995     Zr  0.16174196  0.09537204  0.32390363     2.10000
Zr1996     Zr  0.11489306  0.10594518  0.37124519     1.78800
O1997       O  0.18900671  0.08809049  0.28940987    -0.93200
O1998       O  0.08434753  0.11489261  0.39241386    -0.41000
O1999       O  0.12888011  0.09098217  0.32278474    -0.77600
O2000       O  0.10343556  0.11700174  0.31737770    -0.96300
O2001       O  0.12432654  0.13526117  0.26142660    -0.89600
O2002       O  0.15123471  0.10639623  0.26894822    -0.92500
C2003       C  0.13204021  0.12842689  0.44229104     1.01300
C2004       C  0.19298431  0.11745705  0.37669928     1.14200
C2005       C  0.12975391  0.18551005  0.35428456     1.05000
O2006       O  0.08142157  0.16059582  0.33770159    -0.94600
O2007       O  0.08211316  0.14133633  0.27773140    -0.90400
O2008       O  0.08566968  0.11171408  0.25883288    -0.83500
C2009       C  0.07599045  0.12656507  0.26345816     1.11600
O2010       O  0.18107867  0.16237687  0.27025044    -0.96600
Zr2011     Zr  0.15722531  0.13876109  0.26355265     1.88900
O2012       O  0.12589448  0.11034792  0.20761599    -0.73200
O2013       O  0.10685569  0.17345164  0.26542852    -0.52500
O2014       O  0.15116845  0.16704129  0.23047333    -0.97200
O2015       O  0.18683199  0.12725263  0.24177863    -0.54400
O2016       O  0.15051640  0.12985505  0.20601561    -0.73800
C2017       C  0.13813380  0.12008591  0.19147849     0.98600
O2018       O  0.10095728  0.07936342  0.23686354    -0.62600
O2019       O  0.16580965  0.06916791  0.36333329    -0.57400
O2020       O  0.12678510  0.07002824  0.26906540    -0.94100
O2021       O  0.15474318  0.06638247  0.29533328    -0.92500
O2022       O  0.12404847  0.07856585  0.40438488    -0.92800
O2023       O  0.09265957  0.08065997  0.36733449    -0.91600
C2024       C  0.14081766  0.06017958  0.27852375     1.17400
H2025       H  0.15270180  0.10587648  0.39324152     0.33400
H2026       H  0.09033791  0.11453289  0.31894835     0.44200
H2027       H  0.15689405  0.09938837  0.25054923     0.37700
H2028       H  0.14537924  0.16732743  0.30572587     0.34200
H2029       H  0.08318527  0.10852507  0.41498635     0.26000
H2030       H  0.10334156  0.16670827  0.24431108     0.32000
H2031       H  0.13765984  0.16695076  0.22612843     0.37900
H2032       H  0.12948799  0.07000751  0.38722295     0.32300
H2033       H  0.17804233  0.06381697  0.35722743     0.31200
H2034       H  0.19678961  0.08015096  0.30451932     0.32900
H2035       H  0.18406248  0.11526245  0.23060060     0.31800
H2036       H  0.09358197  0.07642784  0.34319223     0.35800
H2037       H  0.09018709  0.07621794  0.25162446     0.28600
H2038       H  0.16939252  0.17038005  0.40825935     0.32800
H2039       H  0.18692962  0.16375844  0.24729760     0.35700
H2040       H  0.16767159  0.07473147  0.38628918     0.28300
H2041       H  0.09561090  0.08581305  0.21656327     0.41100
H2042       H  0.07771074  0.15033808  0.35331113     0.31200
H2043       H  0.08555902  0.12820274  0.39824735     0.38800
H2044       H  0.19397435  0.12381719  0.26261202     0.30700
H2045       H  0.09556831  0.18053005  0.27179095     0.30700
H2046       H  0.17873391  0.17260427  0.37175648     0.31000
Zr2047     Zr  0.15271755  0.14355286  0.86668552     2.17500
O2048       O  0.17668876  0.16322057  0.89137536    -0.51400
O2049       O  0.14212251  0.14066629  0.92664702    -0.74600
O2050       O  0.14573911  0.17704524  0.86203239    -0.81400
O2051       O  0.18624947  0.10197920  0.86573296    -0.83100
O2052       O  0.11667006  0.17924046  0.84030814    -0.78700
O2053       O  0.18316552  0.13178351  0.88407751    -0.90400
O2054       O  0.11629031  0.12276339  0.92806431    -0.76300
O2055       O  0.11973819  0.14106630  0.86518001    -0.85800
O2056       O  0.14534323  0.11155472  0.87560840    -0.85500
O2057       O  0.14420461  0.15406789  0.80963787    -0.72300
O2058       O  0.16775719  0.12681972  0.82075145    -0.84400
Zr2059     Zr  0.11741575  0.10327333  0.77125350     2.26400
Zr2060     Zr  0.11107479  0.15120282  0.80866436     2.06300
Zr2061     Zr  0.15965073  0.09497055  0.82961045     2.10000
Zr2062     Zr  0.11254143  0.10898240  0.87273616     1.78800
O2063       O  0.18769987  0.08300427  0.80243087    -0.93200
O2064       O  0.08129189  0.11835614  0.88942761    -0.41000
O2065       O  0.12662914  0.09200034  0.82702014    -0.77600
O2066       O  0.10238931  0.11944199  0.81774839    -0.96300
O2067       O  0.12533978  0.13497256  0.76203787    -0.89600
O2068       O  0.15048625  0.10497682  0.77307542    -0.92500
C2069       C  0.12863658  0.13262918  0.94253407     1.01300
C2070       C  0.19200221  0.11624543  0.88228101     1.14200
C2071       C  0.13150846  0.18647694  0.85203519     1.05000
O2072       O  0.08286740  0.16138078  0.83764152    -0.94600
O2073       O  0.08501424  0.14536594  0.77126060    -0.90400
O2074       O  0.08622967  0.11473369  0.75729902    -0.83500
C2075       C  0.07805466  0.13065913  0.75822324     1.11600
O2076       O  0.18548713  0.15649999  0.76922449    -0.96600
Zr2077     Zr  0.15826131  0.13670302  0.76436074     1.88900
O2078       O  0.12472230  0.10872869  0.71074419    -0.73200
O2079       O  0.11021328  0.17646345  0.76649188    -0.52500
O2080       O  0.15546424  0.16654609  0.73455926    -0.97200
O2081       O  0.18592936  0.12152450  0.74145143    -0.54400
O2082       O  0.14845004  0.12922910  0.70648503    -0.73800
C2083       C  0.13594911  0.11888965  0.69326368     0.98600
O2084       O  0.09805331  0.07890104  0.74704602    -0.62600
O2085       O  0.15949405  0.07143148  0.87498868    -0.57400
O2086       O  0.12546138  0.07030248  0.77189993    -0.94100
O2087       O  0.15244941  0.06611056  0.80123196    -0.92500
O2088       O  0.12022650  0.08291388  0.91049604    -0.92800
O2089       O  0.08990669  0.08400179  0.87071092    -0.91600
C2090       C  0.13894740  0.06020158  0.78302583     1.17400
H2091       H  0.14996402  0.10715934  0.89754302     0.33400
H2092       H  0.08909441  0.11801636  0.81804187     0.44200
H2093       H  0.15586353  0.09714692  0.75557657     0.37700
H2094       H  0.14786462  0.16672220  0.80492595     0.34200
H2095       H  0.08024347  0.11489643  0.91406850     0.26000
H2096       H  0.10415061  0.18699850  0.77839260     0.32000
H2097       H  0.15785419  0.16389392  0.70997946     0.37900
H2098       H  0.11445095  0.08596972  0.93290678     0.32300
H2099       H  0.14795374  0.06432135  0.87129512     0.31200
H2100       H  0.18416766  0.08033588  0.77836516     0.32900
H2101       H  0.18140858  0.11118127  0.72710475     0.31800
H2102       H  0.08819984  0.08160490  0.84585957     0.35800
H2103       H  0.08608594  0.07948815  0.75953836     0.28600
H2104       H  0.17030963  0.17136839  0.90812653     0.32800
H2105       H  0.19073081  0.15747784  0.74570605     0.35700
H2106       H  0.16957983  0.06272062  0.86862706     0.28300
H2107       H  0.09519482  0.08308301  0.72330207     0.41100
H2108       H  0.07722291  0.17063479  0.82180539     0.31200
H2109       H  0.08156739  0.13211543  0.88928344     0.38800
H2110       H  0.19173313  0.11539386  0.76163816     0.30700
H2111       H  0.12328402  0.18034092  0.76374721     0.30700
H2112       H  0.18077325  0.17159386  0.87251051     0.31000
C2113       C  0.13955682  0.13437147  0.53945209     0.15900
C2114       C  0.14605500  0.13896264  0.57225123    -0.33100
C2115       C  0.13894166  0.12899055  0.60045739     0.20300
C2116       C  0.12581401  0.11516655  0.59632207     0.02500
C2117       C  0.11926165  0.11061233  0.56351509    -0.22800
C2118       C  0.12647584  0.12050645  0.53528176     0.11700
S2119       S  0.14700507  0.14431652  0.50184920    -0.06500
C2120       C  0.13240409  0.12956325  0.48016993    -0.10000
C2121       C  0.12225960  0.11774149  0.50136062    -0.26600
S2122       S  0.11893359  0.10475888  0.63389813    -0.03800
C2123       C  0.13406604  0.11906719  0.65542665    -0.17200
C2124       C  0.14373463  0.13127572  0.63424705    -0.15200
H2125       H  0.15635935  0.14969957  0.57561350     0.20100
H2126       H  0.10910845  0.09973415  0.56010991     0.16200
H2127       H  0.11267767  0.10729643  0.49237789     0.18700
H2128       H  0.15366140  0.14141675  0.64312826     0.12000
C2129       C  0.12087121  0.12584375  0.03907757     0.15900
C2130       C  0.11477961  0.11939673  0.07131247    -0.33100
C2131       C  0.12680731  0.12142489  0.09927820     0.20300
C2132       C  0.14404046  0.12965386  0.09517264     0.02500
C2133       C  0.15010074  0.13612944  0.06300430    -0.22800
C2134       C  0.13814115  0.13399827  0.03504025     0.11700
S2135       S  0.10884863  0.12355372  0.00179786    -0.06500
C2136       C  0.12740154  0.13340300  0.98030138    -0.10000
C2137       C  0.14193463  0.13853276  0.00137925    -0.26600
S2138       S  0.15642105  0.13141503  0.13207135    -0.03800
C2139       C  0.13819078  0.12105912  0.15362855    -0.17200
C2140       C  0.12338557  0.11628800  0.13285224    -0.15200
H2141       H  0.10134621  0.11291484  0.07436153     0.20100
H2142       H  0.16361204  0.14244099  0.05989007     0.16200
H2143       H  0.15498381  0.14418305  0.99238016     0.18700
H2144       H  0.11058446  0.11014818  0.14196877     0.12000
C2145       C  0.23795683  0.12587629  0.42606110     0.15900
C2146       C  0.25301433  0.13373498  0.44315638    -0.33100
C2147       C  0.26546849  0.12164103  0.45953227     0.20300
C2148       C  0.26295215  0.10254086  0.45942936     0.02500
C2149       C  0.24783296  0.09463813  0.44221994    -0.22800
C2150       C  0.23548547  0.10676438  0.42528840     0.11700
S2151       S  0.22133227  0.13835730  0.40511541    -0.06500
C2152       C  0.21090356  0.11765866  0.39467136    -0.10000
C2153       C  0.21999029  0.10191144  0.40694023    -0.26600
S2154       S  0.27981291  0.09036257  0.48088318    -0.03800
C2155       C  0.29046024  0.11124986  0.48950469    -0.17200
C2156       C  0.28119332  0.12670653  0.47659460    -0.15200
H2157       H  0.25499148  0.14865275  0.44351955     0.20100
H2158       H  0.24586013  0.07972501  0.44184384     0.16200
H2159       H  0.21523737  0.08778543  0.40348924     0.18700
H2160       H  0.28581107  0.14093556  0.47926249     0.12000
C2161       C  0.37928612  0.11649628  0.84729466     0.15900
C2162       C  0.38545320  0.11138750  0.81440444    -0.33100
C2163       C  0.37290712  0.11317178  0.78705763     0.20300
C2164       C  0.35496501  0.11956048  0.79240157     0.02500
C2165       C  0.34874385  0.12447001  0.82534024    -0.22800
C2166       C  0.36137143  0.12296913  0.85258173     0.11700
S2167       S  0.39233051  0.11520101  0.88371713    -0.06500
C2168       C  0.37351589  0.12360799  0.90643797    -0.10000
C2169       C  0.35799231  0.12720284  0.88646046    -0.26600
S2170       S  0.34217149  0.12176621  0.75582199    -0.03800
C2171       C  0.36121544  0.11417798  0.73283275    -0.17200
C2172       C  0.37654677  0.10986770  0.75289681    -0.15200
H2173       H  0.39948336  0.10645564  0.81026204     0.20100
H2174       H  0.33476324  0.12955114  0.82943884     0.16200
H2175       H  0.34473951  0.13188405  0.89637857     0.18700
H2176       H  0.38986810  0.10543032  0.74291092     0.12000
C2177       C  0.37265962  0.10880879  0.29172432     0.15900
C2178       C  0.37993334  0.10574131  0.32462568    -0.33100
C2179       C  0.37225917  0.11586404  0.35188214     0.20300
C2180       C  0.35791205  0.12846746  0.34681914     0.02500
C2181       C  0.35058421  0.13152999  0.31385482    -0.22800
C2182       C  0.35832095  0.12140814  0.28652842     0.11700
S2183       S  0.38050499  0.09828926  0.25517297    -0.06500
C2184       C  0.36436284  0.11105371  0.23243939    -0.10000
C2185       C  0.35344372  0.12269856  0.25256867    -0.26600
S2186       S  0.35029598  0.13895573  0.38364082    -0.03800
C2187       C  0.36658793  0.12611001  0.40603827    -0.17200
C2188       C  0.37733640  0.11452278  0.38566624    -0.15200
H2189       H  0.39113965  0.09592090  0.32879955     0.20100
H2190       H  0.33938070  0.14135671  0.30968110     0.16200
H2191       H  0.34282918  0.13201068  0.24275874     0.18700
H2192       H  0.38798802  0.10517125  0.39519865     0.12000
C2193       C  0.23771750  0.10433800  0.92943742     0.15900
C2194       C  0.25321422  0.09557586  0.94444020    -0.33100
C2195       C  0.26597860  0.10672992  0.96205329     0.20300
C2196       C  0.26342753  0.12579955  0.96435713     0.02500
C2197       C  0.24781022  0.13453286  0.94975994    -0.22800
C2198       C  0.23501540  0.12335751  0.93230788     0.11700
S2199       S  0.22087611  0.09328996  0.90650431    -0.06500
C2200       C  0.20987534  0.11445764  0.90089853    -0.10000
C2201       C  0.21901874  0.12924143  0.91620083    -0.26600
S2202       S  0.28085524  0.13701259  0.98531438    -0.03800
C2203       C  0.29168264  0.11578546  0.99169399    -0.17200
C2204       C  0.28208368  0.10085979  0.97795854    -0.15200
H2205       H  0.25529429  0.08071287  0.94225823     0.20100
H2206       H  0.24581094  0.14942267  0.95166577     0.16200
H2207       H  0.21425517  0.14354090  0.91550547     0.18700
H2208       H  0.28686666  0.08657224  0.97873718     0.12000
C2209       C  0.38504157  0.97638204  0.63472489     0.15900
C2210       C  0.39145751  0.99467081  0.63034558    -0.33100
C2211       C  0.37820218  0.00868395  0.62409622     0.20300
C2212       C  0.35946218  0.00460695  0.62196928     0.02500
C2213       C  0.35305680  0.98645803  0.62689590    -0.22800
C2214       C  0.36624309  0.97254192  0.63338730     0.11700
S2215       S  0.39870845  0.95722062  0.64218575    -0.06500
C2216       C  0.37878435  0.94406106  0.64404074    -0.10000
C2217       C  0.36258482  0.95414408  0.63893936    -0.26600
S2218       S  0.34560827  0.02321991  0.61272352    -0.03800
C2219       C  0.36517198  0.03685980  0.61241926    -0.17200
C2220       C  0.38156160  0.02729183  0.61898318    -0.15200
H2221       H  0.40610243  0.99782598  0.63162689     0.20100
H2222       H  0.33841042  0.98329381  0.62553984     0.16200
H2223       H  0.34876745  0.94829878  0.63936211     0.18700
H2224       H  0.39518803  0.03354963  0.61932930     0.12000
C2225       C  0.36397380  0.96784365  0.10093177     0.15900
C2226       C  0.35473545  0.98419639  0.09079637    -0.33100
C2227       C  0.36420003  0.00107354  0.09444270     0.20300
C2228       C  0.38213277  0.00155465  0.10720447     0.02500
C2229       C  0.39154464  0.98518223  0.11636366    -0.22800
C2230       C  0.38203543  0.96835577  0.11307264     0.11700
S2231       S  0.35412827  0.94633438  0.10265334    -0.06500
C2232       C  0.37458811  0.93796189  0.11979160    -0.10000
C2233       C  0.38833284  0.95117462  0.12333656    -0.26600
S2234       S  0.39080109  0.02335685  0.11208464    -0.03800
C2235       C  0.37007205  0.03206755  0.09673679    -0.17200
C2236       C  0.35725039  0.01857787  0.08796512    -0.15200
H2237       H  0.34055529  0.98384595  0.08174130     0.20100
H2238       H  0.40544718  0.98560568  0.12678189     0.16200
H2239       H  0.40171393  0.94860333  0.13507370     0.18700
H2240       H  0.34346001  0.02142642  0.07825590     0.12000
C2241       C  0.38985628  0.86905152  0.97487927     0.15900
C2242       C  0.39246613  0.87658042  0.94191299    -0.33100
C2243       C  0.38240266  0.86875929  0.91480531     0.20300
C2244       C  0.37023142  0.85415108  0.92007608     0.02500
C2245       C  0.36760118  0.84664717  0.95307524    -0.22800
C2246       C  0.37773371  0.85439877  0.98018005     0.11700
S2247       S  0.40045844  0.87675529  0.01137615    -0.06500
C2248       C  0.38843373  0.86001222  0.03405959    -0.10000
C2249       C  0.37693181  0.84910639  0.01400224    -0.26600
S2250       S  0.35992407  0.84619994  0.88338735    -0.03800
C2251       C  0.37236227  0.86259255  0.86065440    -0.17200
C2252       C  0.38356637  0.87373401  0.88091366    -0.15200
H2253       H  0.40197915  0.88797061  0.93753877     0.20100
H2254       H  0.35818078  0.83518065  0.95741167     0.16200
H2255       H  0.36801565  0.83819370  0.02379252     0.18700
H2256       H  0.39269101  0.88449399  0.87119102     0.12000
C2257       C  0.36865343  0.85974192  0.41898553     0.15900
C2258       C  0.36466217  0.85321014  0.45220119    -0.33100
C2259       C  0.37478833  0.86068218  0.47957548     0.20300
C2260       C  0.38820009  0.87415828  0.47436537     0.02500
C2261       C  0.39217811  0.88071159  0.44112158    -0.22800
C2262       C  0.38212270  0.87315857  0.41369971     0.11700
S2263       S  0.35845947  0.85193531  0.38214046    -0.06500
C2264       C  0.37261682  0.86682103  0.35928903    -0.10000
C2265       C  0.38438790  0.87732706  0.37956534    -0.26600
S2266       S  0.39874218  0.88153447  0.51126502    -0.03800
C2267       C  0.38494844  0.86622166  0.53392158    -0.17200
C2268       C  0.37292800  0.85604027  0.51354919    -0.15200
H2269       H  0.35423663  0.84264964  0.45651004     0.20100
H2270       H  0.40272136  0.89114707  0.43677756     0.16200
H2271       H  0.39452073  0.88710987  0.36977387     0.18700
H2272       H  0.36310576  0.84588752  0.52314932     0.12000
C2273       C  0.39939938  0.72839815  0.82364518     0.15900
C2274       C  0.40709730  0.74392496  0.80685852    -0.33100
C2275       C  0.39487206  0.75755526  0.79401814     0.20300
C2276       C  0.37584413  0.75584824  0.79803402     0.02500
C2277       C  0.36814334  0.74022759  0.81433035    -0.22800
C2278       C  0.38035134  0.72656140  0.82687123     0.11700
S2279       S  0.41180268  0.71051246  0.84177055    -0.06500
C2280       C  0.39108007  0.70028909  0.85326188    -0.10000
C2281       C  0.37550002  0.71043890  0.84354926    -0.26600
S2282       S  0.36339011  0.77423045  0.78233855    -0.03800
C2283       C  0.38399853  0.78435773  0.76975481    -0.17200
C2284       C  0.39964053  0.77381016  0.77740503    -0.15200
H2285       H  0.42196386  0.74538784  0.80416450     0.20100
H2286       H  0.35327978  0.73885926  0.81736264     0.16200
H2287       H  0.36132929  0.70632157  0.84871620     0.18700
H2288       H  0.41374344  0.77802588  0.77194802     0.12000
C2289       C  0.39052326  0.61791773  0.66329002     0.15900
C2290       C  0.39204510  0.60965505  0.69590368    -0.33100
C2291       C  0.38254668  0.61808729  0.72324772     0.20300
C2292       C  0.37203534  0.63407766  0.71853332     0.02500
C2293       C  0.37052058  0.64236382  0.68589981    -0.22800
C2294       C  0.37998483  0.63388573  0.65852185     0.11700
S2295       S  0.40049286  0.60950522  0.62654024    -0.06500
C2296       C  0.39020180  0.62760740  0.60437662    -0.10000
C2297       C  0.37982063  0.63954802  0.62485090    -0.26600
S2298       S  0.36219098  0.64248516  0.75542150    -0.03800
C2299       C  0.37252721  0.62434185  0.77749140    -0.17200
C2300       C  0.38276778  0.61238140  0.75688131    -0.15200
H2301       H  0.40025920  0.59718256  0.69980746     0.20100
H2302       H  0.36235051  0.65486841  0.68201182     0.16200
H2303       H  0.37205997  0.65145714  0.61542718     0.18700
H2304       H  0.39061293  0.60051205  0.76623058     0.12000
C2305       C  0.37359711  0.63530084  0.21748637     0.15900
C2306       C  0.36956906  0.64179492  0.18422315    -0.33100
C2307       C  0.38004814  0.63459391  0.15682861     0.20300
C2308       C  0.39377920  0.62134495  0.16207894     0.02500
C2309       C  0.39774053  0.61477270  0.19531665    -0.22800
C2310       C  0.38737770  0.62210660  0.22273960     0.11700
S2311       S  0.36312831  0.64290503  0.25447250    -0.06500
C2312       C  0.37760273  0.62822895  0.27730685    -0.10000
C2313       C  0.38963772  0.61793000  0.25686698    -0.26600
S2314       S  0.40460447  0.61413544  0.12519421    -0.03800
C2315       C  0.39048997  0.62920588  0.10243122    -0.17200
C2316       C  0.37819644  0.63922385  0.12278943    -0.15200
H2317       H  0.35886885  0.65215048  0.17989643     0.20100
H2318       H  0.40851196  0.60449224  0.19966519     0.16200
H2319       H  0.39995293  0.60824928  0.26655421     0.18700
H2320       H  0.36803997  0.64906583  0.11308434     0.12000
C2321       C  0.40492327  0.73396330  0.33896001     0.15900
C2322       C  0.41265542  0.75043567  0.32565351    -0.33100
C2323       C  0.40052876  0.76333149  0.31008523     0.20300
C2324       C  0.38162214  0.75998591  0.30840903     0.02500
C2325       C  0.37399028  0.74359899  0.32144699    -0.22800
C2326       C  0.38604164  0.73070712  0.33651160     0.11700
S2327       S  0.41696183  0.71640390  0.35886846    -0.06500
C2328       C  0.39627122  0.70463178  0.36338452    -0.10000
C2329       C  0.38102973  0.71396514  0.35024931    -0.26600
S2330       S  0.36900916  0.77710067  0.28925265    -0.03800
C2331       C  0.38935245  0.78900138  0.28264114    -0.17200
C2332       C  0.40513089  0.78004993  0.29498638    -0.15200
H2333       H  0.42740325  0.75303536  0.32723479     0.20100
H2334       H  0.35924353  0.74097758  0.31980954     0.16200
H2335       H  0.36693594  0.70882502  0.35089132     0.18700
H2336       H  0.41908077  0.78547976  0.29313563     0.12000
C2337       C  0.61184165  0.37508908  0.66151309     0.15900
C2338       C  0.60733962  0.38106192  0.69469573    -0.33100
C2339       C  0.61782090  0.37381754  0.72206800     0.20300
C2340       C  0.63221303  0.36130832  0.71679787     0.02500
C2341       C  0.63678559  0.35544385  0.68363125    -0.22800
C2342       C  0.62620324  0.36253503  0.65633590     0.11700
S2343       S  0.60078880  0.38204320  0.62470800    -0.06500
C2344       C  0.61560341  0.36768055  0.60230251    -0.10000
C2345       C  0.62839091  0.35822391  0.62250439    -0.26600
S2346       S  0.64282839  0.35369469  0.75355977    -0.03800
C2347       C  0.62763793  0.36747021  0.77631183    -0.17200
C2348       C  0.61519803  0.37746889  0.75613363    -0.15200
H2349       H  0.59606798  0.39076771  0.69903871     0.20100
H2350       H  0.64794183  0.34560172  0.67930847     0.16200
H2351       H  0.63894640  0.34883022  0.61288094     0.18700
H2352       H  0.60447021  0.38660991  0.76592512     0.12000
C2353       C  0.63460332  0.35982676  0.21812497     0.15900
C2354       C  0.63873801  0.35278414  0.18543688    -0.33100
C2355       C  0.62858116  0.35981704  0.15741543     0.20300
C2356       C  0.61494516  0.37325889  0.16166464     0.02500
C2357       C  0.61082169  0.38028629  0.19429249    -0.22800
C2358       C  0.62096007  0.37326464  0.22226159     0.11700
S2359       S  0.64489996  0.35279440  0.25566571    -0.06500
C2360       C  0.63053275  0.36803726  0.27713292    -0.10000
C2361       C  0.61864235  0.37809126  0.25593520    -0.26600
S2362       S  0.60443308  0.38024280  0.12441095    -0.03800
C2363       C  0.61861742  0.36494997  0.10272429    -0.17200
C2364       C  0.63070006  0.35493334  0.12364851    -0.15200
H2365       H  0.64935137  0.34226062  0.18200116     0.20100
H2366       H  0.60015831  0.39075946  0.19774646     0.16200
H2367       H  0.60841863  0.38805581  0.26479341     0.18700
H2368       H  0.64077435  0.34487991  0.11456424     0.12000
C2369       C  0.50510556  0.12213592  0.64542498     0.15900
C2370       C  0.48829135  0.11262469  0.64197900    -0.33100
C2371       C  0.47183706  0.12295089  0.64504837     0.20300
C2372       C  0.47212996  0.14191642  0.65123886     0.02500
C2373       C  0.48893398  0.15132960  0.65564906    -0.22800
C2374       C  0.50537861  0.14099768  0.65256517     0.11700
S2375       S  0.52653658  0.11223403  0.64141860    -0.06500
C2376       C  0.53600231  0.13362929  0.65033039    -0.10000
C2377       C  0.52308183  0.14765389  0.65570064    -0.26600
S2378       S  0.45084804  0.15232951  0.65003385    -0.03800
C2379       C  0.44139523  0.13089267  0.64121245    -0.17200
C2380       C  0.45418899  0.11646819  0.64000015    -0.15200
H2381       H  0.48805255  0.09790200  0.63635767     0.20100
H2382       H  0.48919304  0.16614667  0.66038666     0.16200
H2383       H  0.52646418  0.16189391  0.66193818     0.18700
H2384       H  0.45092529  0.10228539  0.63314479     0.12000
C2385       C  0.60021394  0.23597592  0.80118163     0.15900
C2386       C  0.59257931  0.25243783  0.81458127    -0.33100
C2387       C  0.60443305  0.26428048  0.83284746     0.20300
C2388       C  0.62305177  0.25996628  0.83717252     0.02500
C2389       C  0.63061182  0.24354634  0.82399840    -0.22800
C2390       C  0.61878305  0.23169712  0.80604647     0.11700
S2391       S  0.58838653  0.21969085  0.77805841    -0.06500
C2392       C  0.60871128  0.20700561  0.77514186    -0.10000
C2393       C  0.62370464  0.21516404  0.79133143    -0.26600
S2394       S  0.63539388  0.27624051  0.85881089    -0.03800
C2395       C  0.61527054  0.28903865  0.86260009    -0.17200
C2396       C  0.59980667  0.28096231  0.84777674    -0.15200
H2397       H  0.57808863  0.25587591  0.81087438     0.20100
H2398       H  0.64514325  0.24018770  0.82745570     0.16200
H2399       H  0.63757992  0.20935722  0.79213238     0.18700
H2400       H  0.58610773  0.28717334  0.84718245     0.12000
C2401       C  0.50517560  0.14294827  0.14835812     0.15900
C2402       C  0.48670945  0.14897738  0.14695404    -0.33100
C2403       C  0.47282810  0.13538474  0.14694632     0.20300
C2404       C  0.47703986  0.11658586  0.14870771     0.02500
C2405       C  0.49556870  0.11052840  0.15015095    -0.22800
C2406       C  0.50949935  0.12414880  0.14955783     0.11700
S2407       S  0.52394786  0.15732991  0.14908033    -0.06500
C2408       C  0.53786812  0.13783489  0.15040810    -0.10000
C2409       C  0.52829808  0.12112013  0.15034936    -0.26600
S2410       S  0.45806796  0.10237668  0.14644898    -0.03800
C2411       C  0.44437845  0.12199665  0.14225523    -0.17200
C2412       C  0.45420235  0.13855731  0.14350176    -0.15200
H2413       H  0.48330822  0.16364230  0.14547619     0.20100
H2414       H  0.49898615  0.09585832  0.15106457     0.16200
H2415       H  0.53474120  0.10751434  0.15205790     0.18700
H2416       H  0.44813896  0.15225234  0.14010601     0.12000
C2417       C  0.61891733  0.12175288  0.91126022     0.15900
C2418       C  0.61345750  0.11536445  0.94393219    -0.33100
C2419       C  0.61460271  0.12780932  0.97143458     0.20300
C2420       C  0.62101536  0.14578937  0.96651159     0.02500
C2421       C  0.62647568  0.15218858  0.93383807    -0.22800
C2422       C  0.62528929  0.13974570  0.90632277     0.11700
S2423       S  0.61772876  0.10901679  0.87457050    -0.06500
C2424       C  0.62576151  0.12813462  0.85205762    -0.10000
C2425       C  0.62941043  0.14347270  0.87238616    -0.26600
S2426       S  0.62227140  0.15846633  0.00322573    -0.03800
C2427       C  0.61421763  0.13932639  0.02572777    -0.17200
C2428       C  0.61046426  0.12404983  0.00536104    -0.15200
H2429       H  0.60849076  0.10130885  0.94771342     0.20100
H2430       H  0.63147114  0.16623708  0.93006893     0.16200
H2431       H  0.63395202  0.15685783  0.86268444     0.18700
H2432       H  0.60592994  0.11065801  0.01502865     0.12000
C2433       C  0.61149733  0.12902917  0.46652934     0.15900
C2434       C  0.60914239  0.12106585  0.43405044    -0.33100
C2435       C  0.61894904  0.12888365  0.40634133     0.20300
C2436       C  0.63057533  0.14398217  0.41060817     0.02500
C2437       C  0.63290479  0.15198139  0.44312588    -0.22800
C2438       C  0.62309141  0.14415042  0.47089172     0.11700
S2439       S  0.60139239  0.12111561  0.50360127    -0.06500
C2440       C  0.61300000  0.13828082  0.52543191    -0.10000
C2441       C  0.62390560  0.14960879  0.50459078    -0.26600
S2442       S  0.64078758  0.15168983  0.37337901    -0.03800
C2443       C  0.62911020  0.13447199  0.35179209    -0.17200
C2444       C  0.61813420  0.12332005  0.37279110    -0.15200
H2445       H  0.60010175  0.10924958  0.43053860     0.20100
H2446       H  0.64196686  0.16377749  0.44664054     0.16200
H2447       H  0.63253966  0.16080292  0.51377976     0.18700
H2448       H  0.60949187  0.11207845  0.36381137     0.12000
C2449       C  0.62739265  0.26342158  0.33170321     0.15900
C2450       C  0.63546877  0.24816627  0.31502642    -0.33100
C2451       C  0.62357733  0.23533871  0.29954629     0.20300
C2452       C  0.60449528  0.23770668  0.30023305     0.02500
C2453       C  0.59640971  0.25293165  0.31713447    -0.22800
C2454       C  0.60829635  0.26566114  0.33304112     0.11700
S2455       S  0.63948268  0.28065815  0.35127755    -0.06500
C2456       C  0.61861281  0.29103020  0.36179381    -0.10000
C2457       C  0.60314047  0.28141044  0.35063448    -0.26600
S2458       S  0.59251202  0.22063039  0.27961284    -0.03800
C2459       C  0.61341416  0.20996613  0.27055942    -0.17200
C2460       C  0.62877693  0.21944194  0.28269951    -0.15200
H2461       H  0.65037914  0.24637209  0.31417051     0.20100
H2462       H  0.58150742  0.25475716  0.31789066     0.16200
H2463       H  0.58894790  0.28594973  0.35433470     0.18700
H2464       H  0.64301099  0.21489513  0.27951467     0.12000
C2465       C  0.86786495  0.86802502  0.54375130     0.15900
C2466       C  0.86163965  0.86462681  0.57736894    -0.33100
C2467       C  0.86871959  0.87581566  0.60368541     0.20300
C2468       C  0.88166638  0.88958588  0.59719484     0.02500
C2469       C  0.88810082  0.89281265  0.56362266    -0.22800
C2470       C  0.88080940  0.88179253  0.53721518     0.11700
S2471       S  0.85990631  0.85702014  0.50772222    -0.06500
C2472       C  0.87405931  0.87127708  0.48352230    -0.10000
C2473       C  0.88453555  0.88356858  0.50286630    -0.26600
S2474       S  0.88826464  0.90174064  0.63293078    -0.03800
C2475       C  0.87323268  0.88819339  0.65676698    -0.17200
C2476       C  0.86386459  0.87497455  0.63764368    -0.15200
H2477       H  0.85139158  0.85402438  0.58270100     0.20100
H2478       H  0.89805753  0.90367836  0.55819035     0.16200
H2479       H  0.89387195  0.89388295  0.49222457     0.18700
H2480       H  0.85401876  0.86509787  0.64811305     0.12000
C2481       C  0.87947239  0.88683020  0.09873665     0.15900
C2482       C  0.88676445  0.89063637  0.06602054    -0.33100
C2483       C  0.87904677  0.88128261  0.03796508     0.20300
C2484       C  0.86491655  0.86846125  0.04222146     0.02500
C2485       C  0.85783389  0.86441516  0.07504665    -0.22800
C2486       C  0.86532964  0.87402429  0.10305164     0.11700
S2487       S  0.88644655  0.89724908  0.13586968    -0.06500
C2488       C  0.87009116  0.88425836  0.15753823    -0.10000
C2489       C  0.85989401  0.87247884  0.13673260    -0.26600
S2490       S  0.85672809  0.85946361  0.00458681    -0.03800
C2491       C  0.87235035  0.87332053  0.98283837    -0.17200
C2492       C  0.88345576  0.88401789  0.00405310    -0.15200
H2493       H  0.89767869  0.90077039  0.06248381     0.20100
H2494       H  0.84666249  0.85456166  0.07851109     0.16200
H2495       H  0.84914671  0.86316606  0.14579642     0.18700
H2496       H  0.89377299  0.89383463  0.99508570     0.12000
C2497       C  0.64535371  0.99443564  0.61611638     0.15900
C2498       C  0.65187813  0.01272465  0.61827496    -0.33100
C2499       C  0.63870889  0.02708872  0.62023481     0.20300
C2500       C  0.61984940  0.02347545  0.61978448     0.02500
C2501       C  0.61330871  0.00514544  0.61781203    -0.22800
C2502       C  0.62650291  0.99073485  0.61620211     0.11700
S2503       S  0.65911869  0.97516050  0.61246463    -0.06500
C2504       C  0.63929262  0.96185551  0.61128196    -0.10000
C2505       C  0.62294031  0.97202748  0.61385578    -0.26600
S2506       S  0.60619090  0.04289379  0.62324289    -0.03800
C2507       C  0.62613136  0.05597112  0.62611634    -0.17200
C2508       C  0.64238723  0.04566028  0.62376843    -0.15200
H2509       H  0.66659540  0.01563466  0.61851128     0.20100
H2510       H  0.59859250  0.00223512  0.61773081     0.16200
H2511       H  0.60917507  0.96610861  0.61280814     0.18700
H2512       H  0.65620710  0.05138571  0.62569421     0.12000
C2513       C  0.52390527  0.87818922  0.63884104     0.15900
C2514       C  0.50551839  0.88431149  0.64222540    -0.33100
C2515       C  0.49159366  0.87075852  0.64413266     0.20300
C2516       C  0.49573087  0.85192854  0.64299921     0.02500
C2517       C  0.51407728  0.84581562  0.63888270    -0.22800
C2518       C  0.52798925  0.85937818  0.63683161     0.11700
S2519       S  0.54284084  0.89238880  0.63584794    -0.06500
C2520       C  0.55637011  0.87277611  0.63096872    -0.10000
C2521       C  0.54654853  0.85620370  0.63225313    -0.26600
S2522       S  0.47693412  0.83772049  0.64812331    -0.03800
C2523       C  0.46332340  0.85738530  0.65125862    -0.17200
C2524       C  0.47300441  0.87396189  0.64832595    -0.15200
H2525       H  0.50221085  0.89899154  0.64349958     0.20100
H2526       H  0.51738873  0.83113438  0.63762969     0.16200
H2527       H  0.55262231  0.84252619  0.62898211     0.18700
H2528       H  0.46683284  0.88766515  0.65044032     0.12000
C2529       C  0.76369896  0.87463450  0.42110662     0.15900
C2530       C  0.74785910  0.86622491  0.43529176    -0.33100
C2531       C  0.73574393  0.87740786  0.45457557     0.20300
C2532       C  0.73923980  0.89614049  0.45945533     0.02500
C2533       C  0.75480734  0.90466452  0.44440255    -0.22800
C2534       C  0.76696070  0.89348245  0.42511479     0.11700
S2535       S  0.78081749  0.86312123  0.39948283    -0.06500
C2536       C  0.79248968  0.88392523  0.39516109    -0.10000
C2537       C  0.78332581  0.89898138  0.40976470    -0.26600
S2538       S  0.72333733  0.90710499  0.48505410    -0.03800
C2539       C  0.71158506  0.88634101  0.48874147    -0.17200
C2540       C  0.71982292  0.87173181  0.47102962    -0.15200
H2541       H  0.74531252  0.85150997  0.43208235     0.20100
H2542       H  0.75752405  0.91930294  0.44815689     0.16200
H2543       H  0.78871345  0.91300345  0.41042152     0.18700
H2544       H  0.71447057  0.85769238  0.47026439     0.12000
C2545       C  0.64481250  0.99503661  0.10748821     0.15900
C2546       C  0.65100764  0.01341799  0.10976476    -0.33100
C2547       C  0.63786122  0.02723264  0.11723769     0.20300
C2548       C  0.61925213  0.02306519  0.12158062     0.02500
C2549       C  0.61303568  0.00460856  0.11942981    -0.22800
C2550       C  0.62629636  0.99069498  0.11264426     0.11700
S2551       S  0.65872436  0.97634265  0.09904933    -0.06500
C2552       C  0.63953122  0.96232865  0.10328626    -0.10000
C2553       C  0.62319159  0.97188532  0.11050985    -0.26600
S2554       S  0.60562340  0.04197637  0.13076375    -0.03800
C2555       C  0.62532105  0.05550304  0.12956342    -0.17200
C2556       C  0.64142346  0.04573420  0.12193788    -0.15200
H2557       H  0.66551570  0.01678142  0.10630066     0.20100
H2558       H  0.59856895  0.00121487  0.12334817     0.16200
H2559       H  0.60975419  0.96543175  0.11373092     0.18700
H2560       H  0.65511580  0.05182099  0.12047495     0.12000
C2561       C  0.49934719  0.85549479  0.16043784     0.15900
C2562       C  0.51801310  0.85022379  0.16315549    -0.33100
C2563       C  0.53146405  0.86316684  0.15297409     0.20300
C2564       C  0.52662223  0.88078855  0.14131047     0.02500
C2565       C  0.50789458  0.88608855  0.13858279    -0.22800
C2566       C  0.49439152  0.87294834  0.14809211     0.11700
S2567       S  0.48104191  0.84165913  0.17131764    -0.06500
C2568       C  0.46637761  0.85941236  0.15866038    -0.10000
C2569       C  0.47546242  0.87524432  0.14679184    -0.26600
S2570       S  0.54513688  0.89415994  0.12916752    -0.03800
C2571       C  0.55944462  0.87560371  0.13907075    -0.17200
C2572       C  0.55021965  0.86009552  0.15159396    -0.15200
H2573       H  0.52188341  0.83649111  0.17229346     0.20100
H2574       H  0.50401782  0.89971448  0.12891424     0.16200
H2575       H  0.46859784  0.88791505  0.13846925     0.18700
H2576       H  0.55684655  0.84699173  0.15806034     0.12000
C2577       C  0.64058318  0.86518979  0.84778620     0.15900
C2578       C  0.64702848  0.86080189  0.81473593    -0.33100
C2579       C  0.63956738  0.87081837  0.78682696     0.20300
C2580       C  0.62624950  0.88452776  0.79151058     0.02500
C2581       C  0.61977722  0.88886214  0.82451399    -0.22800
C2582       C  0.62725318  0.87889401  0.85239634     0.11700
S2583       S  0.64827403  0.85516122  0.88519831    -0.06500
C2584       C  0.63338290  0.86964587  0.90727926    -0.10000
C2585       C  0.62301607  0.88144564  0.88637284    -0.26600
S2586       S  0.61894097  0.89506555  0.75433692    -0.03800
C2587       C  0.63405133  0.88091303  0.73212237    -0.17200
C2588       C  0.64409907  0.86868547  0.75283200    -0.15200
H2589       H  0.65749488  0.85016521  0.81095668     0.20100
H2590       H  0.60943830  0.89961827  0.82832633     0.16200
H2591       H  0.61322135  0.89173595  0.89559425     0.18700
H2592       H  0.65410932  0.85863897  0.74348279     0.12000
C2593       C  0.64722383  0.87277950  0.29060717     0.15900
C2594       C  0.65335208  0.86658452  0.32287529    -0.33100
C2595       C  0.64136699  0.86893079  0.35086406     0.20300
C2596       C  0.62394343  0.87687363  0.34670253     0.02500
C2597       C  0.61771378  0.88286764  0.31430537    -0.22800
C2598       C  0.62984144  0.88079989  0.28638831     0.11700
S2599       S  0.65984035  0.87121502  0.25384179    -0.06500
C2600       C  0.64156418  0.88152037  0.23227186    -0.10000
C2601       C  0.62650346  0.88597005  0.25285821    -0.26600
S2602       S  0.61202389  0.87979258  0.38406005    -0.03800
C2603       C  0.63082537  0.87050905  0.40569138    -0.17200
C2604       C  0.64534279  0.86502639  0.38467881    -0.15200
H2605       H  0.66701026  0.86051610  0.32610728     0.20100
H2606       H  0.60419039  0.88924751  0.31116425     0.16200
H2607       H  0.61363964  0.89200051  0.24365464     0.18700
H2608       H  0.65851077  0.85965021  0.39377166     0.12000
C2609       C  0.74033363  0.87360512  0.95910938     0.15900
C2610       C  0.75619201  0.86615849  0.94332425    -0.33100
C2611       C  0.76889774  0.87862459  0.92855791     0.20300
C2612       C  0.76585277  0.89766386  0.92906986     0.02500
C2613       C  0.75004590  0.90513048  0.94514122    -0.22800
C2614       C  0.73744619  0.89266359  0.96032916     0.11700
S2615       S  0.72320808  0.86077294  0.97805048    -0.06500
C2616       C  0.71212308  0.88128502  0.98840189    -0.10000
C2617       C  0.72133717  0.89717633  0.97738281    -0.26600
S2618       S  0.78282685  0.91037676  0.90913724    -0.03800
C2619       C  0.79433828  0.88984438  0.90047340    -0.17200
C2620       C  0.78523587  0.87406520  0.91242866    -0.15200
H2621       H  0.75853441  0.85128268  0.94261363     0.20100
H2622       H  0.74769213  0.92000269  0.94583518     0.16200
H2623       H  0.71637681  0.91124868  0.98118181     0.18700
H2624       H  0.79028860  0.85996516  0.90942433     0.12000
C2625       C  0.88429104  0.74116452  0.79951561     0.15900
C2626       C  0.89237239  0.75794498  0.80914295    -0.33100
C2627       C  0.88099438  0.77128314  0.82464970     0.20300
C2628       C  0.86225396  0.76831922  0.83006379     0.02500
C2629       C  0.85406512  0.75141390  0.82029225    -0.22800
C2630       C  0.86557195  0.73790258  0.80490326     0.11700
S2631       S  0.89638281  0.72277023  0.78346184    -0.06500
C2632       C  0.87613861  0.71020559  0.78421989    -0.10000
C2633       C  0.86072717  0.72013677  0.79562304    -0.26600
S2634       S  0.85085909  0.78715122  0.84720793    -0.03800
C2635       C  0.87161618  0.79908114  0.84647711    -0.17200
C2636       C  0.88644192  0.78858965  0.83447963    -0.15200
H2637       H  0.90701477  0.76043394  0.80505732     0.20100
H2638       H  0.83945046  0.74888472  0.82456925     0.16200
H2639       H  0.84714044  0.71417617  0.79985344     0.18700
H2640       H  0.90035667  0.79384400  0.83064531     0.12000
C2641       C  0.88222212  0.73863162  0.29403316     0.15900
C2642       C  0.89038365  0.75521764  0.30442593    -0.33100
C2643       C  0.87910651  0.76829494  0.32083415     0.20300
C2644       C  0.86035855  0.76535584  0.32617018     0.02500
C2645       C  0.85208488  0.74863928  0.31561466    -0.22800
C2646       C  0.86352467  0.73530652  0.29954720     0.11700
S2647       S  0.89425311  0.72045052  0.27717373    -0.06500
C2648       C  0.87405084  0.70778492  0.27805318    -0.10000
C2649       C  0.85866722  0.71760425  0.28989005    -0.26600
S2650       S  0.84913705  0.78389263  0.34472325    -0.03800
C2651       C  0.87004700  0.79555523  0.34507531    -0.17200
C2652       C  0.88473491  0.78525254  0.33205683    -0.15200
H2653       H  0.90503719  0.75769921  0.30044634     0.20100
H2654       H  0.83748842  0.74606716  0.32000732     0.16200
H2655       H  0.84513697  0.71156663  0.29434888     0.18700
H2656       H  0.89871861  0.79041004  0.32867163     0.12000
C2657       C  0.88304930  0.62117344  0.53559290     0.15900
C2658       C  0.89033157  0.61838208  0.56858185    -0.33100
C2659       C  0.88244129  0.62852430  0.59565597     0.20300
C2660       C  0.86809342  0.64108519  0.59030446     0.02500
C2661       C  0.86103218  0.64413974  0.55716372    -0.22800
C2662       C  0.86874923  0.63377899  0.53013414     0.11700
S2663       S  0.89026777  0.60977010  0.49943761    -0.06500
C2664       C  0.87383107  0.62214168  0.47663128    -0.10000
C2665       C  0.86341056  0.63438032  0.49640897    -0.26600
S2666       S  0.85950841  0.65082855  0.62718846    -0.03800
C2667       C  0.87527325  0.63758403  0.65003031    -0.17200
C2668       C  0.88676204  0.62666656  0.62968256    -0.15200
H2669       H  0.90136243  0.60840540  0.57311042     0.20100
H2670       H  0.84969686  0.65378129  0.55276434     0.16200
H2671       H  0.85259088  0.64343282  0.48655038     0.18700
H2672       H  0.89712606  0.61704955  0.63941727     0.12000
C2673       C  0.86462334  0.63343131  0.09059082     0.15900
C2674       C  0.85807156  0.63755032  0.05753306    -0.33100
C2675       C  0.86530114  0.62722176  0.03008678     0.20300
C2676       C  0.87840650  0.61332250  0.03511048     0.02500
C2677       C  0.88486369  0.60909063  0.06825511    -0.22800
C2678       C  0.87772553  0.61953563  0.09570755     0.11700
S2679       S  0.85758021  0.64436283  0.12733960    -0.06500
C2680       C  0.87249005  0.63007724  0.14992414    -0.10000
C2681       C  0.88232850  0.61759393  0.12965379    -0.26600
S2682       S  0.88584496  0.60291521  0.99801756    -0.03800
C2683       C  0.87113430  0.61752155  0.97557062    -0.17200
C2684       C  0.86101893  0.62960217  0.99613576    -0.15200
H2685       H  0.84788254  0.64842933  0.05333279     0.20100
H2686       H  0.89512806  0.59828152  0.07243750     0.16200
H2687       H  0.89208814  0.60734283  0.13932949     0.18700
H2688       H  0.85132636  0.63997181  0.98666022     0.12000
C2689       C  0.64610203  0.73713942  0.57833827     0.15900
C2690       C  0.65437492  0.75369946  0.56649061    -0.33100
C2691       C  0.64273659  0.76733373  0.55162860     0.20300
C2692       C  0.62381213  0.76447476  0.54869024     0.02500
C2693       C  0.61562313  0.74806055  0.56050482    -0.22800
C2694       C  0.62714764  0.73460281  0.57547518     0.11700
S2695       S  0.65762409  0.71818915  0.59493658    -0.06500
C2696       C  0.63664142  0.70673679  0.59725656    -0.10000
C2697       C  0.62164338  0.71749090  0.58681634    -0.26600
S2698       S  0.61168011  0.78298074  0.53301246    -0.03800
C2699       C  0.63215018  0.79519662  0.53108657    -0.17200
C2700       C  0.64768316  0.78494378  0.54097457    -0.15200
H2701       H  0.66916136  0.75587345  0.56881746     0.20100
H2702       H  0.60081276  0.74593335  0.55840846     0.16200
H2703       H  0.60754046  0.71248965  0.58481554     0.18700
H2704       H  0.66146320  0.79065791  0.54373104     0.12000
C2705       C  0.64599488  0.50597456  0.52290791     0.15900
C2706       C  0.65194855  0.48749888  0.52028907    -0.33100
C2707       C  0.63854115  0.47398946  0.51346839     0.20300
C2708       C  0.61994500  0.47853172  0.50987620     0.02500
C2709       C  0.61399190  0.49708967  0.51215066    -0.22800
C2710       C  0.62748388  0.51067564  0.51846802     0.11700
S2711       S  0.66011182  0.52430092  0.53178781    -0.06500
C2712       C  0.64094410  0.53857851  0.52897749    -0.10000
C2713       C  0.62453478  0.52943935  0.52149281    -0.26600
S2714       S  0.60597749  0.45994207  0.50133003    -0.03800
C2715       C  0.62553925  0.44607210  0.50156602    -0.17200
C2716       C  0.64182028  0.45545741  0.50869103    -0.15200
H2717       H  0.66643324  0.48381584  0.52326278     0.20100
H2718       H  0.59953038  0.50079123  0.50890713     0.16200
H2719       H  0.61109788  0.53611318  0.51925470     0.18700
H2720       H  0.65546426  0.44911487  0.50943021     0.12000
C2721       C  0.53236942  0.63941960  0.47985681     0.15900
C2722       C  0.51527854  0.64790393  0.47261480    -0.33100
C2723       C  0.49919263  0.63753587  0.47905509     0.20300
C2724       C  0.50006931  0.61950630  0.49184779     0.02500
C2725       C  0.51714658  0.61087764  0.49823153    -0.22800
C2726       C  0.53320804  0.62124132  0.49194110     0.11700
S2727       S  0.55334305  0.65031073  0.47791730    -0.06500
C2728       C  0.56327342  0.63008974  0.49337891    -0.10000
C2729       C  0.55094683  0.61568899  0.49900966    -0.26600
S2730       S  0.47901924  0.60941100  0.49873723    -0.03800
C2731       C  0.46885151  0.62960825  0.48379223    -0.17200
C2732       C  0.48129798  0.64339805  0.47425775    -0.15200
H2733       H  0.51452759  0.66211757  0.46331575     0.20100
H2734       H  0.51787589  0.59683924  0.50841847     0.16200
H2735       H  0.55459112  0.60236165  0.51032955     0.18700
H2736       H  0.47746726  0.65688011  0.46383140     0.12000
C2737       C  0.74165993  0.60853026  0.67824222     0.15900
C2738       C  0.75744330  0.60113702  0.69432938    -0.33100
C2739       C  0.76937587  0.61354900  0.71084633     0.20300
C2740       C  0.76579943  0.63250529  0.71137377     0.02500
C2741       C  0.74986418  0.63988163  0.69570988    -0.22800
C2742       C  0.73795086  0.62745101  0.67912119     0.11700
S2743       S  0.72562740  0.59582604  0.65633848    -0.06500
C2744       C  0.71366944  0.61620749  0.64847733    -0.10000
C2745       C  0.72189598  0.63193074  0.66217382    -0.26600
S2746       S  0.78253735  0.64528594  0.73121881    -0.03800
C2747       C  0.79441442  0.62482283  0.73908167    -0.17200
C2748       C  0.78566274  0.60904776  0.72699933    -0.15200
H2749       H  0.76040450  0.58637044  0.69368770     0.20100
H2750       H  0.74699832  0.65467343  0.69604587     0.16200
H2751       H  0.71637044  0.64591600  0.66000382     0.18700
H2752       H  0.79122038  0.59506840  0.72897080     0.12000
C2753       C  0.64528429  0.73546550  0.08742088     0.15900
C2754       C  0.65352636  0.75260054  0.07901196    -0.33100
C2755       C  0.64244163  0.76607316  0.06236466     0.20300
C2756       C  0.62400268  0.76264689  0.05475998     0.02500
C2757       C  0.61581103  0.74565908  0.06325891    -0.22800
C2758       C  0.62683577  0.73226988  0.07975109     0.11700
S2759       S  0.65649819  0.71655447  0.10490468    -0.06500
C2760       C  0.63614442  0.70420132  0.10106239    -0.10000
C2761       C  0.62146026  0.71464700  0.08811147    -0.26600
S2762       S  0.61235034  0.78104481  0.03728359    -0.03800
C2763       C  0.63243324  0.79373046  0.04029135    -0.17200
C2764       C  0.64745651  0.78390864  0.05360718    -0.15200
H2765       H  0.66792337  0.75526844  0.08496684     0.20100
H2766       H  0.60140349  0.74299620  0.05732972     0.16200
H2767       H  0.60785084  0.70918264  0.08232574     0.18700
H2768       H  0.66077039  0.78999356  0.05955773     0.12000
C2769       C  0.64629563  0.50404344  0.02135458     0.15900
C2770       C  0.65262533  0.48576382  0.01746794    -0.33100
C2771       C  0.63937833  0.47200993  0.01131402     0.20300
C2772       C  0.62060312  0.47613496  0.00969564     0.02500
C2773       C  0.61427369  0.49449130  0.01322540    -0.22800
C2774       C  0.62758191  0.50833143  0.01877022     0.11700
S2775       S  0.66019090  0.52262540  0.02936863    -0.06500
C2776       C  0.64064723  0.53646006  0.02850485    -0.10000
C2777       C  0.62426504  0.52699041  0.02248579    -0.26600
S2778       S  0.60682392  0.45732924  0.00201606    -0.03800
C2779       C  0.62665650  0.44392655  0.99997608    -0.17200
C2780       C  0.64293443  0.45360908  0.00558967    -0.15200
H2781       H  0.66725766  0.48242105  0.01895297     0.20100
H2782       H  0.59965803  0.49785626  0.01146332     0.16200
H2783       H  0.61064314  0.53336568  0.02151779     0.18700
H2784       H  0.65670573  0.44755159  0.00487510     0.12000
C2785       C  0.52970256  0.63685513  0.98748463     0.15900
C2786       C  0.51268082  0.64551903  0.98030164    -0.33100
C2787       C  0.49681599  0.63433350  0.97931006     0.20300
C2788       C  0.49783918  0.61532073  0.98521332     0.02500
C2789       C  0.51494519  0.60658038  0.99187695    -0.22800
C2790       C  0.53084365  0.61780343  0.99288867     0.11700
S2791       S  0.55021155  0.64828129  0.99213101    -0.06500
C2792       C  0.56059232  0.62721087  0.00140409    -0.10000
C2793       C  0.54862652  0.61212808  0.00049107    -0.26600
S2794       S  0.47684776  0.60436944  0.98412911    -0.03800
C2795       C  0.46659853  0.62561106  0.97532725    -0.17200
C2796       C  0.47898243  0.64028945  0.97331183    -0.15200
H2797       H  0.51179519  0.66041002  0.97627643     0.20100
H2798       H  0.51577628  0.59174695  0.99663949     0.16200
H2799       H  0.55253936  0.59794251  0.00670102     0.18700
H2800       H  0.47511404  0.65460153  0.96812578     0.12000
C2801       C  0.64472003  0.63252642  0.79108024     0.15900
C2802       C  0.65249169  0.63484413  0.82380052    -0.33100
C2803       C  0.64416090  0.62538861  0.85150742     0.20300
C2804       C  0.62874932  0.61422761  0.84702134     0.02500
C2805       C  0.62088649  0.61208230  0.81440993    -0.22800
C2806       C  0.62925323  0.62142660  0.78668542     0.11700
S2807       S  0.65330213  0.64184123  0.75368785    -0.06500
C2808       C  0.63593689  0.63048498  0.73190262    -0.10000
C2809       C  0.62408422  0.62033079  0.75293504    -0.26600
S2810       S  0.62062007  0.60405739  0.88397197    -0.03800
C2811       C  0.63803837  0.61515131  0.90586472    -0.17200
C2812       C  0.64958563  0.62591857  0.88516800    -0.15200
H2813       H  0.66460710  0.64344617  0.82745223     0.20100
H2814       H  0.60887162  0.60335067  0.81072838     0.16200
H2815       H  0.61266425  0.61196882  0.74386581     0.18700
H2816       H  0.66109180  0.63411589  0.89439660     0.12000
C2817       C  0.63172344  0.61421428  0.34703775     0.15900
C2818       C  0.62457349  0.61074684  0.31430538    -0.33100
C2819       C  0.63262153  0.62013926  0.28636833     0.20300
C2820       C  0.64713770  0.63247800  0.29059831     0.02500
C2821       C  0.65426487  0.63600947  0.32341030    -0.22800
C2822       C  0.64622883  0.62655654  0.35139995     0.11700
S2823       S  0.62374761  0.60430804  0.38426106    -0.06500
C2824       C  0.64012423  0.61694881  0.40606945    -0.10000
C2825       C  0.65113697  0.62814898  0.38521607    -0.26600
S2826       S  0.65530162  0.64193857  0.25302566    -0.03800
C2827       C  0.63898264  0.62903018  0.23150342    -0.17200
C2828       C  0.62784397  0.61818486  0.25265061    -0.15200
H2829       H  0.61327751  0.60108429  0.31073065     0.20100
H2830       H  0.66563102  0.64559112  0.32695575     0.16200
H2831       H  0.66195668  0.63725004  0.39437485     0.18700
H2832       H  0.61711303  0.60890333  0.24374293     0.12000
C2833       C  0.74266385  0.60196353  0.17577371     0.15900
C2834       C  0.75856037  0.59416449  0.19127522    -0.33100
C2835       C  0.77048153  0.60620434  0.20909591     0.20300
C2836       C  0.76670903  0.62509200  0.21105581     0.02500
C2837       C  0.75079035  0.63276569  0.19606138    -0.22800
C2838       C  0.73891458  0.62081280  0.17850135     0.11700
S2839       S  0.72642602  0.59006767  0.15261142    -0.06500
C2840       C  0.71443303  0.61074871  0.14710985    -0.10000
C2841       C  0.72281755  0.62589205  0.16232692    -0.26600
S2842       S  0.78309902  0.63768181  0.23190092    -0.03800
C2843       C  0.79533525  0.61736846  0.23864067    -0.17200
C2844       C  0.78687129  0.60160814  0.22535129    -0.15200
H2845       H  0.76156340  0.57944487  0.18932070     0.20100
H2846       H  0.74786924  0.64751498  0.19773282     0.16200
H2847       H  0.71737360  0.63994894  0.16174995     0.18700
H2848       H  0.79267321  0.58770702  0.22652801     0.12000
C2849       C  0.23850652  0.85514093  0.67531758     0.15900
C2850       C  0.25523489  0.84602831  0.68384594    -0.33100
C2851       C  0.26930669  0.85667886  0.69920411     0.20300
C2852       C  0.26669142  0.87545545  0.70560739     0.02500
C2853       C  0.25027327  0.88452842  0.69657315    -0.22800
C2854       C  0.23636495  0.87398921  0.68133273     0.11700
S2855       S  0.21892072  0.84478584  0.65942131    -0.06500
C2856       C  0.20789466  0.86613265  0.66143236    -0.10000
C2857       C  0.21915104  0.88037772  0.67285862    -0.26600
S2858       S  0.28515805  0.88633612  0.72319428    -0.03800
C2859       C  0.29710794  0.86560085  0.72122841    -0.17200
C2860       C  0.28686798  0.85083982  0.70837745    -0.15200
H2861       H  0.25711322  0.83132513  0.67910061     0.20100
H2862       H  0.24836438  0.89922451  0.70146128     0.16200
H2863       H  0.21458640  0.89455675  0.67707639     0.18700
H2864       H  0.29234724  0.83704034  0.70373709     0.12000
C2865       C  0.97990058  0.88448090  0.74226262     0.15900
C2866       C  0.99823212  0.89079475  0.74030021    -0.33100
C2867       C  0.01233947  0.87741395  0.73719013     0.20300
C2868       C  0.00837264  0.85860099  0.73531124     0.02500
C2869       C  0.99004855  0.85227095  0.73753627    -0.22800
C2870       C  0.97597736  0.86563411  0.74135466     0.11700
S2871       S  0.96092348  0.89842260  0.74799568    -0.06500
C2872       C  0.94762889  0.87861202  0.75048360    -0.10000
C2873       C  0.95747900  0.86218038  0.74602986    -0.26600
S2874       S  0.02739157  0.84469695  0.72966049    -0.03800
C2875       C  0.04088566  0.86441922  0.73039726    -0.17200
C2876       C  0.03099009  0.88081252  0.73491825    -0.15200
H2877       H  0.00138026  0.90548229  0.74155309     0.20100
H2878       H  0.98690956  0.83757109  0.73663446     0.16200
H2879       H  0.95153576  0.84839371  0.74762791     0.18700
H2880       H  0.03705756  0.89456132  0.73512201     0.12000
C2881       C  0.12094532  0.97945290  0.75652049     0.15900
C2882       C  0.11401021  0.99749144  0.76087669    -0.33100
C2883       C  0.12687059  0.01179220  0.76553066     0.20300
C2884       C  0.14578945  0.00826150  0.76642762     0.02500
C2885       C  0.15273779  0.99024296  0.76186948    -0.22800
C2886       C  0.13987688  0.97599752  0.75671213     0.11700
S2887       S  0.10763773  0.96030809  0.74948453    -0.06500
C2888       C  0.12781118  0.94757950  0.74606209    -0.10000
C2889       C  0.14391374  0.95772190  0.75068795    -0.26600
S2890       S  0.15906400  0.02737621  0.77371066    -0.03800
C2891       C  0.13892058  0.04030644  0.77501317    -0.17200
C2892       C  0.12284478  0.03023167  0.77004068    -0.15200
H2893       H  0.09924749  0.00027757  0.76040574     0.20100
H2894       H  0.16750699  0.98746475  0.76217628     0.16200
H2895       H  0.15784370  0.95210215  0.74899316     0.18700
H2896       H  0.10895525  0.03600505  0.77068420     0.12000
C2897       C  0.23899947  0.87102232  0.16989538     0.15900
C2898       C  0.25595117  0.87938596  0.17700637    -0.33100
C2899       C  0.26918520  0.86889717  0.19481589     0.20300
C2900       C  0.26594787  0.85072978  0.20510267     0.02500
C2901       C  0.24868345  0.84233804  0.19838806    -0.22800
C2902       C  0.23525827  0.85296607  0.18046333     0.11700
S2903       S  0.22105622  0.88223697  0.15050957    -0.06500
C2904       C  0.20779762  0.86270535  0.15729909    -0.10000
C2905       C  0.21725113  0.84799315  0.17293240    -0.26600
S2906       S  0.28490938  0.84020955  0.22394968    -0.03800
C2907       C  0.29713784  0.86057432  0.21733526    -0.17200
C2908       C  0.28666301  0.87466012  0.20232382    -0.15200
H2909       H  0.25871854  0.89356471  0.16899102     0.20100
H2910       H  0.24587776  0.82820919  0.20658610     0.16200
H2911       H  0.21086736  0.83509998  0.18113892     0.18700
H2912       H  0.29193379  0.88822210  0.19506121     0.12000
C2913       C  0.01006139  0.87990723  0.24260291     0.15900
C2914       C  0.99342378  0.88932565  0.24991376    -0.33100
C2915       C  0.97673302  0.87969639  0.24513759     0.20300
C2916       C  0.97665945  0.86145211  0.23382730     0.02500
C2917       C  0.99326128  0.85218679  0.22579356    -0.22800
C2918       C  0.00992945  0.86183789  0.23042289     0.11700
S2919       S  0.03175087  0.88901715  0.24721099    -0.06500
C2920       C  0.04079242  0.86841176  0.23179922    -0.10000
C2921       C  0.02748815  0.85519970  0.22401094    -0.26600
S2922       S  0.95519712  0.85156106  0.23298209    -0.03800
C2923       C  0.94609544  0.87229162  0.24755228    -0.17200
C2924       C  0.95917814  0.88611582  0.25247549    -0.15200
H2925       H  0.99349992  0.90344885  0.25938400     0.20100
H2926       H  0.99320504  0.83794857  0.21691672     0.16200
H2927       H  0.03047980  0.84156145  0.21369180     0.18700
H2928       H  0.95615455  0.89969961  0.26300960     0.12000
C2929       C  0.14809869  0.00847062  0.25841603     0.15900
C2930       C  0.15521227  0.99065234  0.25191846    -0.33100
C2931       C  0.14251978  0.97600993  0.24905097     0.20300
C2932       C  0.12361038  0.97894735  0.25277194     0.02500
C2933       C  0.11648768  0.99680086  0.25878070    -0.22800
C2934       C  0.12915160  0.01146709  0.26131265     0.11700
S2935       S  0.16119872  0.02792529  0.26413347    -0.06500
C2936       C  0.14092089  0.04027818  0.26997317    -0.10000
C2937       C  0.12492770  0.02975749  0.26746205    -0.26600
S2938       S  0.11051937  0.95935629  0.24884985    -0.03800
C2939       C  0.13068213  0.94706991  0.24138246    -0.17200
C2940       C  0.14666695  0.95775281  0.24234425    -0.15200
H2941       H  0.16998893  0.98829310  0.24936879     0.20100
H2942       H  0.10171662  0.99914938  0.26145110     0.16200
H2943       H  0.11099729  0.03510791  0.27098975     0.18700
H2944       H  0.16056309  0.95247417  0.23807250     0.12000
C2945       C  0.11642523  0.87654301  0.90638318     0.15900
C2946       C  0.11303049  0.88373431  0.93922636    -0.33100
C2947       C  0.12236108  0.87546310  0.96707576     0.20300
C2948       C  0.13460756  0.86077196  0.96253463     0.02500
C2949       C  0.13810900  0.85368417  0.92965669    -0.22800
C2950       C  0.12867951  0.86185609  0.90183368     0.11700
S2951       S  0.10648280  0.88455578  0.86923048    -0.06500
C2952       C  0.11897774  0.86791312  0.84728871    -0.10000
C2953       C  0.13017410  0.85682921  0.86803495    -0.26600
S2954       S  0.14395183  0.85221290  0.99984725    -0.03800
C2955       C  0.13111976  0.86853629  0.02187381    -0.17200
C2956       C  0.12039491  0.88004697  0.00099375    -0.15200
H2957       H  0.10341473  0.89515393  0.94295932     0.20100
H2958       H  0.14760423  0.84216352  0.92595929     0.16200
H2959       H  0.13920536  0.84586577  0.85880654     0.18700
H2960       H  0.11119177  0.89086958  0.01022104     0.12000
C2961       C  0.12500746  0.88239224  0.46215334     0.15900
C2962       C  0.11991059  0.88899067  0.42946620    -0.33100
C2963       C  0.12028553  0.87634347  0.40220681     0.20300
C2964       C  0.12559534  0.85797496  0.40736503     0.02500
C2965       C  0.13084118  0.85141481  0.43997733    -0.22800
C2966       C  0.13045802  0.86405553  0.46721563     0.11700
S2967       S  0.12413517  0.89519565  0.49879158    -0.06500
C2968       C  0.13116126  0.87564606  0.52127443    -0.10000
C2969       C  0.13428499  0.86014531  0.50108777    -0.26600
S2970       S  0.12566854  0.84492622  0.37104978    -0.03800
C2971       C  0.11865796  0.86444109  0.34837720    -0.17200
C2972       C  0.11614445  0.88014075  0.36836946    -0.15200
H2973       H  0.11565473  0.90330521  0.42554119     0.20100
H2974       H  0.13495771  0.83706196  0.44395848     0.16200
H2975       H  0.13798135  0.84649696  0.51091366     0.18700
H2976       H  0.11235956  0.89374944  0.35848932     0.12000
C2977       C  0.26772594  0.63995589  0.93865743     0.15900
C2978       C  0.25088666  0.64839922  0.94831491    -0.33100
C2979       C  0.23654812  0.63674612  0.96013464     0.20300
C2980       C  0.23903647  0.61764262  0.96248637     0.02500
C2981       C  0.25576228  0.60928811  0.95301349    -0.22800
C2982       C  0.26989201  0.62083525  0.94086475     0.11700
S2983       S  0.28714773  0.65136072  0.92439546    -0.06500
C2984       C  0.29813905  0.63005459  0.92154531    -0.10000
C2985       C  0.28709453  0.61510181  0.93082117    -0.26600
S2986       S  0.21987851  0.60559326  0.97456435    -0.03800
C2987       C  0.20797794  0.62637621  0.97572654    -0.17200
C2988       C  0.21867958  0.64191947  0.96823749    -0.15200
H2989       H  0.24897323  0.66330597  0.94630133     0.20100
H2990       H  0.25757586  0.59434329  0.95446117     0.16200
H2991       H  0.29168644  0.60074185  0.93174524     0.18700
H2992       H  0.21332584  0.65596311  0.96594140     0.12000
C2993       C  0.98124516  0.62209547  0.88738767     0.15900
C2994       C  0.99964893  0.61588518  0.88829099    -0.33100
C2995       C  0.01343648  0.62909250  0.89458331     0.20300
C2996       C  0.00915588  0.64761523  0.90045874     0.02500
C2997       C  0.99074915  0.65388806  0.89911698    -0.22800
C2998       C  0.97697675  0.64071728  0.89218743     0.11700
S2999       S  0.96257222  0.60836464  0.87886138    -0.06500
C3000       C  0.94892111  0.62802592  0.88070288    -0.10000
C3001       C  0.95844727  0.64421127  0.88824214    -0.26600
S3002       S  0.02791846  0.66117095  0.90952362    -0.03800
C3003       C  0.04166761  0.64170829  0.90449364    -0.17200
C3004       C  0.03205719  0.62568972  0.89639323    -0.15200
H3005       H  0.00309427  0.60141407  0.88400098     0.20100
H3006       H  0.98731848  0.66838778  0.90312049     0.16200
H3007       H  0.95222160  0.65792259  0.88954804     0.18700
H3008       H  0.03831720  0.61209380  0.89318250     0.12000
C3009       C  0.10424423  0.76292627  0.08073303     0.15900
C3010       C  0.09664684  0.74716871  0.06488916    -0.33100
C3011       C  0.10886527  0.73272213  0.05554946     0.20300
C3012       C  0.12771843  0.73388689  0.06201688     0.02500
C3013       C  0.13529305  0.74967169  0.07734673    -0.22800
C3014       C  0.12317050  0.76412210  0.08631813     0.11700
S3015       S  0.09197092  0.78189723  0.09484828    -0.06500
C3016       C  0.11266945  0.79157855  0.10776601    -0.10000
C3017       C  0.12807243  0.78051543  0.10139203    -0.26600
S3018       S  0.14027731  0.71498791  0.04927833    -0.03800
C3019       C  0.12004149  0.70539316  0.03418894    -0.17200
C3020       C  0.10436342  0.71638015  0.03941870    -0.15200
H3021       H  0.08190340  0.74620558  0.06008000     0.20100
H3022       H  0.15004565  0.75065878  0.08206976     0.16200
H3023       H  0.14217935  0.78417920  0.10790796     0.18700
H3024       H  0.09047396  0.71270448  0.03152219     0.12000
C3025       C  0.24232204  0.62794087  0.46756668     0.15900
C3026       C  0.25950469  0.61934648  0.46332984    -0.33100
C3027       C  0.27316664  0.62904831  0.44527360     0.20300
C3028       C  0.27022950  0.64678654  0.43229583     0.02500
C3029       C  0.25280049  0.65552173  0.43648072    -0.22800
C3030       C  0.23886730  0.64558305  0.45437111     0.11700
S3031       S  0.22375231  0.61728563  0.48588594    -0.06500
C3032       C  0.21071654  0.63654360  0.47538954    -0.10000
C3033       C  0.22059289  0.65073274  0.45917099    -0.26600
S3034       S  0.28953778  0.65610991  0.41255042    -0.03800
C3035       C  0.30136327  0.63571226  0.42207316    -0.17200
C3036       C  0.29061260  0.62262845  0.43910550    -0.15200
H3037       H  0.26203684  0.60544738  0.47321498     0.20100
H3038       H  0.25016208  0.66926826  0.42601482     0.16200
H3039       H  0.21440957  0.66331203  0.44878510     0.18700
H3040       H  0.29554615  0.60919442  0.44805476     0.12000
C3041       C  0.97930731  0.64447588  0.39706826     0.15900
C3042       C  0.99619409  0.65344425  0.40347422    -0.33100
C3043       C  0.01249472  0.64271160  0.40227097     0.20300
C3044       C  0.01199367  0.62389256  0.39487598     0.02500
C3045       C  0.99505219  0.61480961  0.38947407    -0.22800
C3046       C  0.97874241  0.62552827  0.39083796     0.11700
S3047       S  0.95827704  0.65537585  0.39396351    -0.06500
C3048       C  0.94849010  0.63413093  0.38476828    -0.10000
C3049       C  0.96104338  0.61944475  0.38443126    -0.26600
S3050       S  0.03335086  0.61354180  0.39294566    -0.03800
C3051       C  0.04312362  0.63468499  0.40305247    -0.17200
C3052       C  0.03027887  0.64893822  0.40737695    -0.15200
H3053       H  0.99664732  0.66823506  0.40840083     0.20100
H3054       H  0.99463209  0.60010142  0.38377094     0.16200
H3055       H  0.95759006  0.60529011  0.37770158     0.18700
H3056       H  0.03376197  0.66309977  0.41398497     0.12000
C3057       C  0.13673771  0.64067969  0.66872957     0.15900
C3058       C  0.14001096  0.64788292  0.70162063    -0.33100
C3059       C  0.13031640  0.63994307  0.72943947     0.20300
C3060       C  0.11805994  0.62538398  0.72482309     0.02500
C3061       C  0.11499039  0.61803258  0.69205400    -0.22800
C3062       C  0.12453601  0.62606423  0.66423366     0.11700
S3063       S  0.14621480  0.64901280  0.63128471    -0.06500
C3064       C  0.13349973  0.63267402  0.60933068    -0.10000
C3065       C  0.12272904  0.62133978  0.63034755    -0.26600
S3066       S  0.10759734  0.61773335  0.76177368    -0.03800
C3067       C  0.11989993  0.63428537  0.78387898    -0.17200
C3068       C  0.13143955  0.64510275  0.76326338    -0.15200
H3069       H  0.14947249  0.65934448  0.70530342     0.20100
H3070       H  0.10538016  0.60670128  0.68832639     0.16200
H3071       H  0.11357878  0.61054720  0.62122767     0.18700
H3072       H  0.14041600  0.65598611  0.77260302     0.12000
C3073       C  0.13068499  0.64203794  0.22374136     0.15900
C3074       C  0.13640042  0.64783372  0.19091830    -0.33100
C3075       C  0.13405269  0.63540599  0.16372695     0.20300
C3076       C  0.12636805  0.61796900  0.16904913     0.02500
C3077       C  0.12080862  0.61210216  0.20197149    -0.22800
C3078       C  0.12306359  0.62458090  0.22916171     0.11700
S3079       S  0.13258460  0.65504601  0.25989424    -0.06500
C3080       C  0.12305258  0.63678542  0.28281947    -0.10000
C3081       C  0.11854820  0.62148704  0.26308544    -0.26600
S3082       S  0.12347374  0.60545592  0.13243367    -0.03800
C3083       C  0.13264673  0.62393524  0.10961645    -0.17200
C3084       C  0.13791504  0.63883732  0.12969179    -0.15200
H3085       H  0.14225689  0.66150628  0.18671670     0.20100
H3086       H  0.11474090  0.59852008  0.20610651     0.16200
H3087       H  0.11291244  0.60861190  0.27314237     0.18700
H3088       H  0.14322228  0.65188019  0.11973913     0.12000
C3089       C  0.12783921  0.73951596  0.54776108     0.15900
C3090       C  0.13587207  0.75477004  0.56408341    -0.33100
C3091       C  0.12424818  0.76956236  0.57324375     0.20300
C3092       C  0.10539601  0.76925864  0.56643034     0.02500
C3093       C  0.09738147  0.75409522  0.54929688    -0.22800
C3094       C  0.10906215  0.73917091  0.54020236     0.11700
S3095       S  0.13964698  0.71998053  0.53646409    -0.06500
C3096       C  0.11918484  0.71097938  0.52103382    -0.10000
C3097       C  0.10399002  0.72281726  0.52444811    -0.26600
S3098       S  0.09361849  0.78822836  0.58173478    -0.03800
C3099       C  0.11438569  0.79663773  0.59712462    -0.17200
C3100       C  0.12950724  0.78526830  0.59036875    -0.15200
H3101       H  0.15053551  0.75493523  0.57000663     0.20100
H3102       H  0.08266320  0.75377973  0.54394558     0.16200
H3103       H  0.09002768  0.71954383  0.51639231     0.18700
H3104       H  0.14357744  0.78810215  0.59841479     0.12000
C3105       C  0.11979076  0.26395327  0.79825285     0.15900
C3106       C  0.11161460  0.24750534  0.80994164    -0.33100
C3107       C  0.12304441  0.23438649  0.82619129     0.20300
C3108       C  0.14187819  0.23726801  0.83033425     0.02500
C3109       C  0.15009653  0.25387187  0.81879003    -0.22800
C3110       C  0.13857587  0.26714133  0.80267746     0.11700
S3111       S  0.10782985  0.28204534  0.78048426    -0.06500
C3112       C  0.12821290  0.29442340  0.77960085    -0.10000
C3113       C  0.14356198  0.28459893  0.79156171    -0.26600
S3114       S  0.15343810  0.21865661  0.84800348    -0.03800
C3115       C  0.13262683  0.20690420  0.84941886    -0.17200
C3116       C  0.11763243  0.21729187  0.83769011    -0.15200
H3117       H  0.09691672  0.24507059  0.80667276     0.20100
H3118       H  0.16478120  0.25631797  0.82212737     0.16200
H3119       H  0.15722836  0.29048516  0.79493556     0.18700
H3120       H  0.10366062  0.21204048  0.83492931     0.12000
C3121       C  0.14129455  0.49326851  0.85731724     0.15900
C3122       C  0.14826619  0.51135932  0.85916599    -0.33100
C3123       C  0.13577532  0.52569119  0.86690768     0.20300
C3124       C  0.11705822  0.52228008  0.87196600     0.02500
C3125       C  0.11005134  0.50410962  0.87012876    -0.22800
C3126       C  0.12265693  0.48966919  0.86300127     0.11700
S3127       S  0.15436681  0.47410982  0.84849105    -0.06500
C3128       C  0.13463241  0.46088782  0.85292845    -0.10000
C3129       C  0.11874058  0.47101599  0.86075444    -0.26600
S3130       S  0.10435576  0.54166079  0.88196933    -0.03800
C3131       C  0.12459645  0.55432802  0.88021296    -0.17200
C3132       C  0.14017760  0.54399041  0.87162488    -0.15200
H3133       H  0.16287065  0.51411043  0.85521688     0.20100
H3134       H  0.09549722  0.50132331  0.87457215     0.16200
H3135       H  0.10505880  0.46510771  0.86402677     0.18700
H3136       H  0.15411526  0.54947923  0.86993918     0.12000
C3137       C  0.14444784  0.26396490  0.30960091     0.15900
C3138       C  0.15273171  0.24734691  0.32145770    -0.33100
C3139       C  0.14108482  0.23386656  0.33665857     0.20300
C3140       C  0.12220535  0.23700902  0.34032822     0.02500
C3141       C  0.11406379  0.25352845  0.32879911    -0.22800
C3142       C  0.12552304  0.26668909  0.31301996     0.11700
S3143       S  0.15579850  0.28264970  0.29167863    -0.06500
C3144       C  0.13471186  0.29411948  0.28926256    -0.10000
C3145       C  0.11987656  0.28357593  0.30081050    -0.26600
S3146       S  0.10993513  0.21853078  0.35549672    -0.03800
C3147       C  0.13024826  0.20592682  0.35593076    -0.17200
C3148       C  0.14587205  0.21604353  0.34634310    -0.15200
H3149       H  0.16746788  0.24490381  0.31845078     0.20100
H3150       H  0.09927029  0.25583802  0.33120984     0.16200
H3151       H  0.10573081  0.28859112  0.30280898     0.18700
H3152       H  0.15955727  0.21008893  0.34280783     0.12000
C3153       C  0.12373750  0.49336106  0.36635435     0.15900
C3154       C  0.11512517  0.51018220  0.37516888    -0.33100
C3155       C  0.12596475  0.52631948  0.37448744     0.20300
C3156       C  0.14460969  0.52568601  0.36573201     0.02500
C3157       C  0.15315018  0.50891345  0.35631064    -0.22800
C3158       C  0.14225647  0.49280742  0.35671139     0.11700
S3159       S  0.11307981  0.47223622  0.36657113    -0.06500
C3160       C  0.13367652  0.46255171  0.35284562    -0.10000
C3161       C  0.14801383  0.47516704  0.34858840    -0.26600
S3162       S  0.15565695  0.54652766  0.36873224    -0.03800
C3163       C  0.13487829  0.55631463  0.38141379    -0.17200
C3164       C  0.12022449  0.54391993  0.38306928    -0.15200
H3165       H  0.10065278  0.51063518  0.38260023     0.20100
H3166       H  0.16769491  0.50840615  0.34938047     0.16200
H3167       H  0.16192345  0.47159712  0.34031442     0.18700
H3168       H  0.10631526  0.54744436  0.39139491     0.12000
C3169       C  0.12155758  0.37498851  0.59075695     0.15900
C3170       C  0.11514464  0.38060582  0.55824187    -0.33100
C3171       C  0.12788101  0.38071152  0.53094399     0.20300
C3172       C  0.14613931  0.37519502  0.53580156     0.02500
C3173       C  0.15253202  0.36943124  0.56828758    -0.22800
C3174       C  0.13982651  0.36951441  0.59568828     0.11700
S3175       S  0.10862095  0.37549169  0.62744436    -0.06500
C3176       C  0.12804092  0.36851089  0.65000746    -0.10000
C3177       C  0.14359951  0.36552101  0.62965406    -0.26600
S3178       S  0.15926501  0.37571026  0.49930354    -0.03800
C3179       C  0.13995359  0.38335905  0.47703765    -0.17200
C3180       C  0.12426498  0.38559653  0.49733099    -0.15200
H3181       H  0.10090551  0.38499265  0.55451867     0.20100
H3182       H  0.16682875  0.36525817  0.57209084     0.16200
H3183       H  0.15720235  0.36189822  0.63942856     0.18700
H3184       H  0.11075704  0.38971135  0.48776208     0.12000
C3185       C  0.13551696  0.36454441  0.09173829     0.15900
C3186       C  0.14140948  0.35966464  0.05859641    -0.33100
C3187       C  0.13539607  0.37081497  0.03096636     0.20300
C3188       C  0.12388721  0.38605005  0.03592882     0.02500
C3189       C  0.11786275  0.39083634  0.06904337    -0.22800
C3190       C  0.12397027  0.37975028  0.09670306     0.11700
S3191       S  0.14207260  0.35344513  0.12889287    -0.06500
C3192       C  0.12909878  0.36946887  0.15142833    -0.10000
C3193       C  0.12013130  0.38254506  0.13080450    -0.26600
S3194       S  0.11815088  0.39774211  0.99891851    -0.03800
C3195       C  0.13145729  0.38194622  0.97648764    -0.17200
C3196       C  0.13981351  0.36842886  0.99699986    -0.15200
H3197       H  0.15048472  0.34784267  0.05455477     0.20100
H3198       H  0.10895392  0.40278105  0.07312053     0.16200
H3199       H  0.11173551  0.39392930  0.14033720     0.18700
H3200       H  0.14848018  0.35724156  0.98749764     0.12000
C3201       C  0.35834961  0.25867485  0.58673420     0.15900
C3202       C  0.34958144  0.24237466  0.57550266    -0.33100
C3203       C  0.36063865  0.22888325  0.55910470     0.20300
C3204       C  0.37952584  0.23147153  0.55457093     0.02500
C3205       C  0.38825384  0.24751818  0.56621614    -0.22800
C3206       C  0.37726233  0.26097852  0.58224470     0.11700
S3207       S  0.34738728  0.27777712  0.60352862    -0.06500
C3208       C  0.36852798  0.28898992  0.60365619    -0.10000
C3209       C  0.38318828  0.27804479  0.59249197    -0.26600
S3210       S  0.39082857  0.21338644  0.53575733    -0.03800
C3211       C  0.37001051  0.20181321  0.53434960    -0.17200
C3212       C  0.35502036  0.21187569  0.54712490    -0.15200
H3213       H  0.33480220  0.24044685  0.57880726     0.20100
H3214       H  0.40300107  0.24953603  0.56255238     0.16200
H3215       H  0.39726976  0.28290594  0.58900066     0.18700
H3216       H  0.34110706  0.20647266  0.55002799     0.12000
C3217       C  0.47495580  0.35525305  0.48463242     0.15900
C3218       C  0.49163685  0.34686908  0.47414639    -0.33100
C3219       C  0.50817825  0.35648962  0.48042126     0.20300
C3220       C  0.50807101  0.37362961  0.49655011     0.02500
C3221       C  0.49141022  0.38215222  0.50640692    -0.22800
C3222       C  0.47490195  0.37263378  0.49987213     0.11700
S3223       S  0.45354051  0.34527907  0.48201379    -0.06500
C3224       C  0.44443912  0.36496110  0.50084224    -0.10000
C3225       C  0.45740621  0.37840689  0.50867296    -0.26600
S3226       S  0.52949112  0.38291096  0.50263304    -0.03800
C3227       C  0.53883788  0.36364543  0.48274128    -0.17200
C3228       C  0.52582433  0.35070947  0.47223320    -0.15200
H3229       H  0.49174015  0.33333231  0.46212448     0.20100
H3230       H  0.49133159  0.39554996  0.51895657     0.16200
H3231       H  0.45431443  0.39123483  0.52199790     0.18700
H3232       H  0.52907085  0.33789765  0.45899926     0.12000
C3233       C  0.38480526  0.51684756  0.51023682     0.15900
C3234       C  0.39085382  0.49837088  0.51278197    -0.33100
C3235       C  0.37751998  0.48476327  0.51987969     0.20300
C3236       C  0.35901063  0.48933214  0.52486130     0.02500
C3237       C  0.35291438  0.50780463  0.52203159    -0.22800
C3238       C  0.36622461  0.52138468  0.51431365     0.11700
S3239       S  0.39877838  0.53530760  0.50086544    -0.06500
C3240       C  0.37930642  0.54922859  0.50132850    -0.10000
C3241       C  0.36296831  0.53996008  0.50908104    -0.26600
S3242       S  0.34515084  0.47081099  0.53433745    -0.03800
C3243       C  0.36447317  0.45674540  0.53088384    -0.17200
C3244       C  0.38071262  0.46606614  0.52299327    -0.15200
H3245       H  0.40530372  0.49473668  0.50909589     0.20100
H3246       H  0.33843423  0.51141098  0.52542034     0.16200
H3247       H  0.34938839  0.54642350  0.51015323     0.18700
H3248       H  0.39420221  0.45955257  0.52032575     0.12000
C3249       C  0.26219856  0.36996533  0.67545963     0.15900
C3250       C  0.24668024  0.36217812  0.69171698    -0.33100
C3251       C  0.23331267  0.37435079  0.70508542     0.20300
C3252       C  0.23531734  0.39347544  0.70260006     0.02500
C3253       C  0.25078542  0.40129495  0.68591567    -0.22800
C3254       C  0.26416041  0.38907634  0.67232892     0.11700
S3255       S  0.28008034  0.35743504  0.65854904    -0.06500
C3256       C  0.29038531  0.37808941  0.64652587    -0.10000
C3257       C  0.28030215  0.39385536  0.65549433    -0.26600
S3258       S  0.21770989  0.40577474  0.72149582    -0.03800
C3259       C  0.20748171  0.38490410  0.73253191    -0.17200
C3260       C  0.21734497  0.36935618  0.72191756    -0.15200
H3261       H  0.24515559  0.34724796  0.69405537     0.20100
H3262       H  0.25237732  0.41622343  0.68381575     0.16200
H3263       H  0.28469630  0.40800602  0.65056714     0.18700
H3264       H  0.21312659  0.35511421  0.72650532     0.12000
C3265       C  0.37857929  0.25848166  0.09473495     0.15900
C3266       C  0.38735842  0.24147900  0.08861769    -0.33100
C3267       C  0.37813014  0.22859653  0.06808141     0.20300
C3268       C  0.36076124  0.23221435  0.05443010     0.02500
C3269       C  0.35191144  0.24937096  0.06048986    -0.22800
C3270       C  0.36125811  0.26240025  0.08102032     0.11700
S3271       S  0.38849250  0.27640162  0.11630182    -0.06500
C3272       C  0.36924342  0.28960549  0.10666440    -0.10000
C3273       C  0.35568122  0.28026547  0.08825966    -0.26600
S3274       S  0.35154046  0.21382533  0.03238261    -0.03800
C3275       C  0.37132921  0.20121877  0.04200833    -0.17200
C3276       C  0.38435117  0.21116090  0.06054473    -0.15200
H3277       H  0.40093697  0.23847332  0.09917431     0.20100
H3278       H  0.33839962  0.25242687  0.04971572     0.16200
H3279       H  0.34327668  0.28673243  0.07793645     0.18700
H3280       H  0.39724128  0.20546636  0.07036284     0.12000
C3281       C  0.47519042  0.35364240  0.98928645     0.15900
C3282       C  0.49203123  0.34464714  0.98191843    -0.33100
C3283       C  0.50839415  0.35499244  0.98487885     0.20300
C3284       C  0.50798737  0.37346190  0.99486292     0.02500
C3285       C  0.49112096  0.38256564  0.00155724    -0.22800
C3286       C  0.47474596  0.37224450  0.99842074     0.11700
S3287       S  0.45402394  0.34311486  0.98982108    -0.06500
C3288       C  0.44435058  0.36406302  0.00187695    -0.10000
C3289       C  0.45704188  0.37838871  0.00518568    -0.26600
S3290       S  0.52933360  0.38344335  0.99792439    -0.03800
C3291       C  0.53898368  0.36260941  0.98509951    -0.17200
C3292       C  0.52613496  0.34871485  0.97893819    -0.15200
H3293       H  0.49238388  0.33012843  0.97474404     0.20100
H3294       H  0.49079779  0.39699729  0.00930682     0.16200
H3295       H  0.45363644  0.39224545  0.01400040     0.18700
H3296       H  0.52956982  0.33482947  0.97032660     0.12000
C3297       C  0.38109448  0.48759119  0.02435585     0.15900
C3298       C  0.39009286  0.50392925  0.01412000    -0.33100
C3299       C  0.38063265  0.52077327  0.01869920     0.20300
C3300       C  0.36300041  0.52136798  0.03299352     0.02500
C3301       C  0.35416113  0.50503487  0.04402770    -0.22800
C3302       C  0.36359111  0.48814322  0.03917859     0.11700
S3303       S  0.38987950  0.46577187  0.01905424    -0.06500
C3304       C  0.36978202  0.45717342  0.03704752    -0.10000
C3305       C  0.35706163  0.47069796  0.04680565    -0.26600
S3306       S  0.35319329  0.54301088  0.03320365    -0.03800
C3307       C  0.37310739  0.55129932  0.01394254    -0.17200
C3308       C  0.38663130  0.53795152  0.00825933    -0.15200
H3309       H  0.40367867  0.50348607  0.00222153     0.20100
H3310       H  0.34033286  0.50542316  0.05492363     0.16200
H3311       H  0.34368512  0.46791401  0.05842179     0.18700
H3312       H  0.39969811  0.54049489  0.99529912     0.12000
C3313       C  0.36002301  0.36273848  0.79416557     0.15900
C3314       C  0.35354028  0.35846126  0.82724300    -0.33100
C3315       C  0.36127499  0.36815406  0.85485454     0.20300
C3316       C  0.37482568  0.38153399  0.84991214     0.02500
C3317       C  0.38134174  0.38577562  0.81686050    -0.22800
C3318       C  0.37364922  0.37604080  0.78927151     0.11700
S3319       S  0.35224135  0.35279627  0.75711421    -0.06500
C3320       C  0.36763899  0.36663127  0.73483920    -0.10000
C3321       C  0.37810243  0.37829181  0.75535660    -0.26600
S3322       S  0.38243295  0.39168443  0.88684476    -0.03800
C3323       C  0.36716507  0.37773614  0.90918192    -0.17200
C3324       C  0.35684362  0.36589941  0.88879837    -0.15200
H3325       H  0.34291626  0.34807345  0.83128765     0.20100
H3326       H  0.39193326  0.39619825  0.81281111     0.16200
H3327       H  0.38825307  0.38815615  0.74591005     0.18700
H3328       H  0.34673199  0.35602097  0.89833631     0.12000
C3329       C  0.36333990  0.36222469  0.29464056     0.15900
C3330       C  0.35658078  0.35852359  0.32775269    -0.33100
C3331       C  0.36318956  0.36948812  0.35473334     0.20300
C3332       C  0.37605160  0.38347012  0.34927330     0.02500
C3333       C  0.38287845  0.38714310  0.31612544    -0.22800
C3334       C  0.37621142  0.37618955  0.28908589     0.11700
S3335       S  0.35631057  0.35113663  0.25816284    -0.06500
C3336       C  0.37075279  0.36558847  0.23504440    -0.10000
C3337       C  0.38065931  0.37804076  0.25502172    -0.26600
S3338       S  0.38262069  0.39479482  0.38586678    -0.03800
C3339       C  0.36790893  0.38041875  0.40869372    -0.17200
C3340       C  0.35838574  0.36778440  0.38860116    -0.15200
H3341       H  0.34649705  0.34765972  0.33227649     0.20100
H3342       H  0.39287786  0.39808282  0.31157289     0.16200
H3343       H  0.39005630  0.38847654  0.24499590     0.18700
H3344       H  0.34882963  0.35743652  0.39841086     0.12000
C3345       C  0.23605822  0.39499554  0.20252437     0.15900
C3346       C  0.25180276  0.40254174  0.18648974    -0.33100
C3347       C  0.26458389  0.39011647  0.17180310     0.20300
C3348       C  0.26183201  0.37104900  0.17322388     0.02500
C3349       C  0.24610059  0.36352770  0.18910505    -0.22800
C3350       C  0.23332353  0.37592958  0.20360652     0.11700
S3351       S  0.21886232  0.40760748  0.22188663    -0.06500
C3352       C  0.20783809  0.38693927  0.23123859    -0.10000
C3353       C  0.21718554  0.37123191  0.21996557    -0.26600
S3354       S  0.27913153  0.35823980  0.15504204    -0.03800
C3355       C  0.29029103  0.37876119  0.14524009    -0.17200
C3356       C  0.28087387  0.39465757  0.15548689    -0.15200
H3357       H  0.25401530  0.41741866  0.18558224     0.20100
H3358       H  0.24394760  0.34864051  0.19023069     0.16200
H3359       H  0.21241806  0.35708457  0.22352510     0.18700
H3360       H  0.28591576  0.40871239  0.15206696     0.12000
C3361       C  0.76370205  0.14838351  0.66776771     0.15900
C3362       C  0.74534401  0.14638284  0.65694887    -0.33100
C3363       C  0.73142252  0.14715203  0.68213506     0.20300
C3364       C  0.73537811  0.15067851  0.71637567     0.02500
C3365       C  0.75374903  0.15295218  0.72714830    -0.22800
C3366       C  0.76775750  0.15127317  0.70219645     0.11700
S3367       S  0.78270453  0.14561074  0.64186517    -0.06500
C3368       C  0.79616359  0.14763652  0.67804279    -0.10000
C3369       C  0.78641207  0.15077373  0.70822713    -0.26600
S3370       S  0.71644201  0.15016291  0.74307171    -0.03800
C3371       C  0.70333318  0.14424125  0.70788309    -0.17200
C3372       C  0.71309431  0.14343120  0.67717866    -0.15200
H3373       H  0.74211789  0.14338000  0.63036281     0.20100
H3374       H  0.75704139  0.15498344  0.75403161     0.16200
H3375       H  0.79265530  0.15181122  0.73346619     0.18700
H3376       H  0.70712652  0.13979176  0.65258191     0.12000
C3377       C  0.86200140  0.03251821  0.78653354     0.15900
C3378       C  0.85307381  0.01566795  0.79367128    -0.33100
C3379       C  0.86344614  0.99927873  0.79022803     0.20300
C3380       C  0.88193706  0.99965369  0.78037203     0.02500
C3381       C  0.89102095  0.01654623  0.77418259    -0.22800
C3382       C  0.88059932  0.03294618  0.77738575     0.11700
S3383       S  0.85124693  0.05364649  0.78545964    -0.06500
C3384       C  0.87202431  0.06322989  0.77262263    -0.10000
C3385       C  0.88653667  0.05061954  0.76996085    -0.26600
S3386       S  0.89180471  0.97822900  0.77585461    -0.03800
C3387       C  0.87085832  0.96865089  0.78785591    -0.17200
C3388       C  0.85704041  0.98152256  0.79486554    -0.15200
H3389       H  0.83852056  0.01531290  0.80054855     0.20100
H3390       H  0.90541951  0.01686134  0.76624236     0.16200
H3391       H  0.90033766  0.05401409  0.76091820     0.18700
H3392       H  0.84303766  0.97807473  0.80266313     0.12000
C3393       C  0.99493360  0.12559262  0.74697665     0.15900
C3394       C  0.01148338  0.11619564  0.75472965    -0.33100
C3395       C  0.02818361  0.12525720  0.74709194     0.20300
C3396       C  0.02839829  0.14299594  0.73285154     0.02500
C3397       C  0.01185394  0.15223012  0.72445696    -0.22800
C3398       C  0.99515893  0.14308741  0.73174615     0.11700
S3399       S  0.97325796  0.11707801  0.75456063    -0.06500
C3400       C  0.96436194  0.13711760  0.73624366    -0.10000
C3401       C  0.97765677  0.14973363  0.72532020    -0.26600
S3402       S  0.04998074  0.15241393  0.72903492    -0.03800
C3403       C  0.05884085  0.13209552  0.74618022    -0.17200
C3404       C  0.04566815  0.11877266  0.75415762    -0.15200
H3405       H  0.01134809  0.10251994  0.76657169     0.20100
H3406       H  0.01198204  0.16606107  0.71326349     0.16200
H3407       H  0.97468440  0.16295701  0.71297114     0.18700
H3408       H  0.04862931  0.10561936  0.76678530     0.12000
C3409       C  0.76527803  0.14832649  0.17522557     0.15900
C3410       C  0.74792089  0.15673412  0.18135496    -0.33100
C3411       C  0.73385029  0.14558590  0.19582363     0.20300
C3412       C  0.73699937  0.12697745  0.20354335     0.02500
C3413       C  0.75409212  0.11861480  0.19704424    -0.22800
C3414       C  0.76802106  0.12966909  0.18276438     0.11700
S3415       S  0.78491002  0.15941688  0.16078013    -0.06500
C3416       C  0.79677469  0.13865244  0.16565818    -0.10000
C3417       C  0.78574300  0.12402536  0.17671917    -0.26600
S3418       S  0.71833044  0.11532714  0.21902079    -0.03800
C3419       C  0.70575200  0.13555296  0.21461336    -0.17200
C3420       C  0.71579548  0.15069910  0.20251767    -0.15200
H3421       H  0.74554795  0.17128237  0.17544999     0.20100
H3422       H  0.75646710  0.10406084  0.20300228     0.16200
H3423       H  0.79074983  0.11012427  0.18251229     0.18700
H3424       H  0.70988467  0.16417493  0.19631954     0.12000
C3425       C  0.88141405  0.99540651  0.27629542     0.15900
C3426       C  0.89052742  0.01221217  0.26933375    -0.33100
C3427       C  0.88010506  0.02867327  0.27142132     0.20300
C3428       C  0.86139675  0.02835602  0.27976933     0.02500
C3429       C  0.85235994  0.01158820  0.28726128    -0.22800
C3430       C  0.86281514  0.99515374  0.28542338     0.11700
S3431       S  0.89149742  0.97394848  0.27430616    -0.06500
C3432       C  0.87052673  0.96451096  0.28651117    -0.10000
C3433       C  0.85650508  0.97746520  0.29159057    -0.26600
S3434       S  0.85080510  0.04955698  0.27818395    -0.03800
C3435       C  0.87182647  0.05904637  0.26646708    -0.17200
C3436       C  0.88626574  0.04633214  0.26426903    -0.15200
H3437       H  0.90504238  0.01242191  0.26216430     0.20100
H3438       H  0.83774907  0.01134213  0.29372475     0.16200
H3439       H  0.84244203  0.97411651  0.29915976     0.18700
H3440       H  0.90021617  0.04966960  0.25599427     0.12000
C3441       C  0.99470221  0.14580494  0.25069525     0.15900
C3442       C  0.01295910  0.15225708  0.25064205    -0.33100
C3443       C  0.02722292  0.13900688  0.25133122     0.20300
C3444       C  0.02359058  0.12009759  0.25179241     0.02500
C3445       C  0.00523943  0.11359908  0.25208046    -0.22800
C3446       C  0.99090031  0.12692167  0.25174848     0.11700
S3447       S  0.97561086  0.15978364  0.24818567    -0.06500
C3448       C  0.96218891  0.14005144  0.24890881    -0.10000
C3449       C  0.97217106  0.12352428  0.25120535    -0.26600
S3450       S  0.04307500  0.10641890  0.25368391    -0.03800
C3451       C  0.05612112  0.12646919  0.25467851    -0.17200
C3452       C  0.04576238  0.14272155  0.25287385    -0.15200
H3453       H  0.01592820  0.16700505  0.25009230     0.20100
H3454       H  0.00227287  0.09885414  0.25269900     0.16200
H3455       H  0.96609893  0.10978404  0.25057328     0.18700
H3456       H  0.05147094  0.15660568  0.25419407     0.12000
C3457       C  0.88082743  0.15211626  0.92068481     0.15900
C3458       C  0.87397942  0.15686723  0.95330481    -0.33100
C3459       C  0.87831934  0.14502043  0.98098038     0.20300
C3460       C  0.88921798  0.12929602  0.97638325     0.02500
C3461       C  0.89613076  0.12459347  0.94380456    -0.22800
C3462       C  0.89160025  0.13630973  0.91605569     0.11700
S3463       S  0.87612060  0.16402765  0.88363587    -0.06500
C3464       C  0.88847830  0.14735746  0.86138189    -0.10000
C3465       C  0.89615797  0.13355781  0.88210427    -0.26600
S3466       S  0.89331924  0.11695320  0.01318444    -0.03800
C3467       C  0.88017594  0.13309172  0.03518980    -0.17200
C3468       C  0.87296103  0.14722499  0.01467622    -0.15200
H3469       H  0.86543104  0.16912243  0.95685810     0.20100
H3470       H  0.90450961  0.11222695  0.94019464     0.16200
H3471       H  0.90390457  0.12169365  0.87270900     0.18700
H3472       H  0.86476963  0.15879226  0.02405591     0.12000
C3473       C  0.86923939  0.14532617  0.42079280     0.15900
C3474       C  0.86344036  0.15136280  0.45338707    -0.33100
C3475       C  0.86722136  0.13974848  0.48170276     0.20300
C3476       C  0.87610165  0.12276700  0.47753427     0.02500
C3477       C  0.88160912  0.11661002  0.44490080    -0.22800
C3478       C  0.87817012  0.12836528  0.41671088     0.11700
S3479       S  0.86662138  0.15767719  0.38353190    -0.06500
C3480       C  0.87794054  0.13993896  0.36217958    -0.10000
C3481       C  0.88319658  0.12516814  0.38312548    -0.26600
S3482       S  0.88058726  0.11123956  0.51504793    -0.03800
C3483       C  0.87054549  0.12951407  0.53689262    -0.17200
C3484       C  0.86382564  0.14364772  0.51575366    -0.15200
H3485       H  0.85669348  0.16472017  0.45661982     0.20100
H3486       H  0.88874885  0.10345342  0.44176062     0.16200
H3487       H  0.89014461  0.11270961  0.37424847     0.18700
H3488       H  0.85762755  0.15645210  0.52484471     0.12000
C3489       C  0.76418299  0.35477583  0.95426732     0.15900
C3490       C  0.74713960  0.34572757  0.94921748    -0.33100
C3491       C  0.73330892  0.35543810  0.93075209     0.20300
C3492       C  0.73646429  0.37320373  0.91794583     0.02500
C3493       C  0.75327416  0.38215281  0.92313664    -0.22800
C3494       C  0.76687550  0.37262380  0.94164954     0.11700
S3495       S  0.78338487  0.34548581  0.97410223    -0.06500
C3496       C  0.79490611  0.36594026  0.96478115    -0.10000
C3497       C  0.78414393  0.37915318  0.94810294    -0.26600
S3498       S  0.71796524  0.38350855  0.89878197    -0.03800
C3499       C  0.70538307  0.36395618  0.90860062    -0.17200
C3500       C  0.71535281  0.34989284  0.92501252    -0.15200
H3501       H  0.74474579  0.33186839  0.95929466     0.20100
H3502       H  0.75559318  0.39611406  0.91344991     0.16200
H3503       H  0.78904376  0.39256378  0.93912607     0.18700
H3504       H  0.70937188  0.33717181  0.93505201     0.12000
C3505       C  0.85879858  0.50864124  0.85987697     0.15900
C3506       C  0.85218569  0.49036777  0.86263015    -0.33100
C3507       C  0.86496860  0.47629238  0.87108546     0.20300
C3508       C  0.88355959  0.48014654  0.87631142     0.02500
C3509       C  0.89012768  0.49846635  0.87402856    -0.22800
C3510       C  0.87730278  0.51258674  0.86585007     0.11700
S3511       S  0.84564465  0.52762929  0.84889183    -0.06500
C3512       C  0.86522760  0.54115174  0.85279724    -0.10000
C3513       C  0.88101969  0.53121790  0.86221236    -0.26600
S3514       S  0.89681103  0.46101586  0.88605009    -0.03800
C3515       C  0.87699173  0.44775032  0.88377195    -0.17200
C3516       C  0.86111536  0.45777967  0.87550398    -0.15200
H3517       H  0.83770834  0.48724288  0.85830012     0.20100
H3518       H  0.90460159  0.50158211  0.87840349     0.16200
H3519       H  0.89461974  0.53726116  0.86550949     0.18700
H3520       H  0.84739483  0.45185243  0.87328078     0.12000
C3521       C  0.02664625  0.35715072  0.90358647     0.15900
C3522       C  0.01003424  0.34795530  0.91139981    -0.33100
C3523       C  0.99343793  0.35789548  0.90686251     0.20300
C3524       C  0.99344716  0.37616222  0.89515815     0.02500
C3525       C  0.01003931  0.38551149  0.88838799    -0.22800
C3526       C  0.02659683  0.37559510  0.89289386     0.11700
S3527       S  0.04802705  0.34691950  0.90325044    -0.06500
C3528       C  0.05696190  0.36777709  0.88887433    -0.10000
C3529       C  0.04400417  0.38189572  0.88516808    -0.26600
S3530       S  0.97200303  0.38563773  0.88985154    -0.03800
C3531       C  0.96278927  0.36493662  0.90429972    -0.17200
C3532       C  0.97582112  0.35137986  0.91247649    -0.15200
H3533       H  0.01001978  0.33354624  0.91967501     0.20100
H3534       H  0.01001951  0.39975864  0.87916679     0.16200
H3535       H  0.04695580  0.39558762  0.87477968     0.18700
H3536       H  0.97260011  0.33762926  0.92226843     0.12000
C3537       C  0.87786226  0.26387545  0.05246900     0.15900
C3538       C  0.87020034  0.24771521  0.06656949    -0.33100
C3539       C  0.88228739  0.23478917  0.08160391     0.20300
C3540       C  0.90125478  0.23772762  0.08271983     0.02500
C3541       C  0.90904123  0.25379006  0.06774926    -0.22800
C3542       C  0.89685693  0.26680129  0.05256058     0.11700
S3543       S  0.86517979  0.28146695  0.03475789    -0.06500
C3544       C  0.88561327  0.29297536  0.02651978    -0.10000
C3545       C  0.90145202  0.28349341  0.03723858    -0.26600
S3546       S  0.91322948  0.22061350  0.10423802    -0.03800
C3547       C  0.89239613  0.20940337  0.11123622    -0.17200
C3548       C  0.87718445  0.21857298  0.09745375    -0.15200
H3549       H  0.85536534  0.24545575  0.06636215     0.20100
H3550       H  0.92384682  0.25617883  0.06841235     0.16200
H3551       H  0.91546383  0.28864585  0.03446163     0.18700
H3552       H  0.86299322  0.21382427  0.09958305     0.12000
C3553       C  0.76493941  0.35267536  0.45369992     0.15900
C3554       C  0.74794313  0.34480089  0.44371248    -0.33100
C3555       C  0.73372801  0.35705183  0.43301795     0.20300
C3556       C  0.73644599  0.37613386  0.43244845     0.02500
C3557       C  0.75314783  0.38389551  0.44271577    -0.22800
C3558       C  0.76716968  0.37179511  0.45332861     0.11700
S3559       S  0.78474133  0.34068081  0.46476809    -0.06500
C3560       C  0.79587060  0.36180859  0.46828580    -0.10000
C3561       C  0.78455092  0.37704583  0.46219934    -0.26600
S3562       S  0.71783446  0.38893614  0.42008867    -0.03800
C3563       C  0.70572885  0.36851360  0.41616555    -0.17200
C3564       C  0.71596770  0.35251979  0.42335106    -0.15200
H3565       H  0.74595857  0.32988830  0.44391305     0.20100
H3566       H  0.75518005  0.39881280  0.44225852     0.16200
H3567       H  0.78919098  0.39136132  0.46179449     0.18700
H3568       H  0.71042685  0.33855108  0.42360756     0.12000
C3569       C  0.86099085  0.47742147  0.36335954     0.15900
C3570       C  0.85247282  0.49446755  0.35543173    -0.33100
C3571       C  0.86346267  0.51048518  0.35651809     0.20300
C3572       C  0.88211444  0.50958045  0.36496973     0.02500
C3573       C  0.89076019  0.49246895  0.37183671    -0.22800
C3574       C  0.87975873  0.47645061  0.37089020     0.11700
S3575       S  0.84969246  0.45668964  0.36677536    -0.06500
C3576       C  0.87051029  0.44653809  0.37814211    -0.10000
C3577       C  0.88537685  0.45869301  0.37879774    -0.26600
S3578       S  0.89281994  0.53067288  0.36658307    -0.03800
C3579       C  0.87204258  0.54081426  0.35500089    -0.17200
C3580       C  0.85763286  0.52836469  0.35046072    -0.15200
H3581       H  0.83782033  0.49526938  0.34956097     0.20100
H3582       H  0.90532063  0.49172225  0.37845403     0.16200
H3583       H  0.89935041  0.45490635  0.38630570     0.18700
H3584       H  0.84363457  0.53219728  0.34318613     0.12000
C3585       C  0.99457097  0.37942774  0.38871365     0.15900
C3586       C  0.01145882  0.38824474  0.38152575    -0.33100
C3587       C  0.02784588  0.37823841  0.38800407     0.20300
C3588       C  0.02744441  0.36014677  0.40055677     0.02500
C3589       C  0.01056774  0.35143204  0.40824436    -0.22800
C3590       C  0.99419832  0.36152206  0.40214287     0.11700
S3591       S  0.97317494  0.38923297  0.38291324    -0.06500
C3592       C  0.96360707  0.36914748  0.39951429    -0.10000
C3593       C  0.97648735  0.35556788  0.40848450    -0.26600
S3594       S  0.04874551  0.34980418  0.40363462    -0.03800
C3595       C  0.05835562  0.37020296  0.38848961    -0.17200
C3596       C  0.04557227  0.38419207  0.38160381    -0.15200
H3597       H  0.01181031  0.40225386  0.37115479     0.20100
H3598       H  0.01020162  0.33733651  0.41820471     0.16200
H3599       H  0.97309564  0.34218289  0.41973590     0.18700
H3600       H  0.04897705  0.39757901  0.37037581     0.12000
C3601       C  0.86972950  0.36059378  0.66558888     0.15900
C3602       C  0.86679622  0.35327385  0.69866600    -0.33100
C3603       C  0.87585613  0.36184531  0.72624220     0.20300
C3604       C  0.88734354  0.37703102  0.72127106     0.02500
C3605       C  0.89019910  0.38442574  0.68819505    -0.22800
C3606       C  0.88111605  0.37585697  0.66061851     0.11700
S3607       S  0.86048476  0.35185710  0.62856509    -0.06500
C3608       C  0.87206335  0.36899101  0.60607484    -0.10000
C3609       C  0.88242473  0.38078431  0.62661510    -0.26600
S3610       S  0.89694468  0.38542225  0.75828894    -0.03800
C3611       C  0.88527186  0.36831586  0.78076609    -0.17200
C3612       C  0.87461714  0.35680826  0.76020709    -0.15200
H3613       H  0.85790873  0.34135839  0.70273035     0.20100
H3614       H  0.89914363  0.39629697  0.68410413     0.16200
H3615       H  0.89087604  0.39212813  0.61707952     0.18700
H3616       H  0.86612246  0.34548540  0.76968359     0.12000
C3617       C  0.86854197  0.36124404  0.16625002     0.15900
C3618       C  0.86631321  0.35350892  0.19916600    -0.33100
C3619       C  0.87579954  0.36190087  0.22640213     0.20300
C3620       C  0.88681726  0.37743244  0.22132461     0.02500
C3621       C  0.88908453  0.38512871  0.18842847    -0.22800
C3622       C  0.87977734  0.37661385  0.16115587     0.11700
S3623       S  0.85887485  0.35272624  0.12945672    -0.06500
C3624       C  0.87045131  0.36983681  0.10693777    -0.10000
C3625       C  0.88087340  0.38162424  0.12727851    -0.26600
S3626       S  0.89668274  0.38586797  0.25793581    -0.03800
C3627       C  0.88601111  0.36812941  0.28031552    -0.17200
C3628       C  0.87538395  0.35643331  0.26013558    -0.15200
H3629       H  0.85770622  0.34139567  0.20333102     0.20100
H3630       H  0.89781237  0.39715163  0.18422207     0.16200
H3631       H  0.88935194  0.39292576  0.11764406     0.18700
H3632       H  0.86736260  0.34480140  0.26977182     0.12000
C3633       C  0.90314247  0.26637637  0.55471425     0.15900
C3634       C  0.91134901  0.25110640  0.57173454    -0.33100
C3635       C  0.89959106  0.23677894  0.58320189     0.20300
C3636       C  0.88062719  0.23763275  0.57746680     0.02500
C3637       C  0.87249361  0.25278240  0.56059246    -0.22800
C3638       C  0.88413244  0.26711973  0.54964928     0.11700
S3639       S  0.91468875  0.28537402  0.53892879    -0.06500
C3640       C  0.89356617  0.29438368  0.52603627    -0.10000
C3641       C  0.87857412  0.28310035  0.53346585    -0.26600
S3642       S  0.86854083  0.21923628  0.59303938    -0.03800
C3643       C  0.88914468  0.21009201  0.60799304    -0.17200
C3644       C  0.90462309  0.22090712  0.60095862    -0.15200
H3645       H  0.92616195  0.25049431  0.57606584     0.20100
H3646       H  0.85765909  0.25344463  0.55644899     0.16200
H3647       H  0.86430131  0.28637107  0.52715108     0.18700
H3648       H  0.91866212  0.21740766  0.60847507     0.12000
loop_ 
_geom_bond_atom_site_label_1 
_geom_bond_atom_site_label_2 
_geom_bond_distance 
_geom_bond_site_symmetry_2 
_ccdc_geom_bond_type 
Zr1           O2   2.442       .  S
Zr1           O3   2.448       .  S
Zr1           O4   2.450       .  S
Zr1           O7   2.446       .  S
Zr1           O9   2.386       .  S
Zr1          O10   2.383       .  S
Zr1          O11   2.412       .  S
Zr1          O12   2.398       .  S
O2           H58   0.990       .  S
O2           H66   0.991       .  S
O3           C23   1.285       .  A
O4           C25   1.286       .  A
O5          Zr15   2.424       .  S
O5           C24   1.283       .  A
O6          Zr14   2.418       .  S
O6           C25   1.282       .  A
O7           C24   1.287       .  A
O8          Zr16   2.406       .  S
O8           C23   1.279       .  A
O9          Zr14   2.399       .  S
O9          Zr16   2.380       .  S
O10         Zr15   2.380       .  S
O10         Zr16   2.384       .  S
O10          H45   0.966       .  S
O11         Zr14   2.400       .  S
O11         Zr31   2.397       .  S
O11          H48   0.965       .  S
O12         Zr15   2.376       .  S
O12         Zr31   2.382       .  S
Zr13         O38   2.442       .  S
Zr13         O32   2.453       .  S
Zr13         O40   2.463       .  S
Zr13         O28   2.444       .  S
Zr13         O19   2.399       .  S
Zr13         O20   2.413       .  S
Zr13         O21   2.381       .  S
Zr13         O22   2.391       .  S
Zr14         O33   2.436       .  S
Zr14         O26   2.435       .  S
Zr14         O27   2.428       .  S
Zr14         O20   2.400       .  S
Zr14         O21   2.389       .  S
Zr15         O17   2.435       .  S
Zr15         O39   2.438       .  S
Zr15         O41   2.394       .  S
Zr15         O19   2.390       .  S
Zr15         O22   2.393       .  S
Zr16         O42   2.436       .  S
Zr16         O43   2.436       .  S
Zr16         O18   2.436       .  S
Zr16         O19   2.385       .  S
Zr16         O20   2.388       .  S
O17          H54   0.990       .  S
O18          H49   0.990       .  S
O18          H63   0.990       .  S
O20          H46   0.965       .  S
O21         Zr31   2.377       .  S
O22         Zr31   2.385       .  S
O22          H47   0.966       .  S
C23        C3627   1.471       .  S
C24        C3576   1.473       .  S
C25        C3592   1.475       .  S
O26          H62   0.990       .  S
O27          C29   1.282       .  A
O28          C29   1.286       .  A
C29        C3640   1.473       .  S
O30         Zr31   2.439       .  S
O30          H59   0.990       .  S
Zr31         O34   2.436       .  S
Zr31         O35   2.441       .  S
Zr31         O36   2.405       .  S
O32          C37   1.287       .  A
O33          H50   0.990       .  S
O33          H65   0.990       .  S
O34          H51   0.990       .  S
O35          H55   0.990       .  S
O35          H64   0.990       .  S
O36          C37   1.279       .  A
C37        C3608   1.477       .  S
O38          H57   0.991       .  S
O38          H61   0.990       .  S
O39          H53   0.990       .  S
O39          H60   0.990       .  S
O40          C44   1.288       .  A
O41          C44   1.279       .  A
O42          H52   0.990       .  S
O43          H56   0.990       .  S
C44        C3560   1.472       .  S
Zr67         O68   2.443       .  S
Zr67         O69   2.458       .  S
Zr67         O70   2.434       .  S
Zr67         O73   2.447       .  S
Zr67         O75   2.387       .  S
Zr67         O76   2.379       .  S
Zr67         O77   2.417       .  S
Zr67         O78   2.398       .  S
O68         H124   0.990       .  S
O68         H132   0.991       .  S
O69          C89   1.287       .  A
O70          C91   1.283       .  A
O71         Zr81   2.430       .  S
O71          C90   1.283       .  A
O72         Zr80   2.429       .  S
O72          C91   1.283       .  A
O73          C90   1.286       .  A
O74         Zr82   2.413       .  S
O74          C89   1.280       .  A
O75         Zr80   2.407       .  S
O75         Zr82   2.382       .  S
O76         Zr81   2.385       .  S
O76         Zr82   2.383       .  S
O76         H111   0.966       .  S
O77         Zr80   2.404       .  S
O77         Zr97   2.397       .  S
O77         H114   0.965       .  S
O78         Zr81   2.376       .  S
O78         Zr97   2.381       .  S
Zr79        O104   2.445   1_556  S
Zr79         O98   2.448   1_556  S
Zr79        O106   2.457       .  S
Zr79         O94   2.432   1_556  S
Zr79         O85   2.397       .  S
Zr79         O86   2.412       .  S
Zr79         O87   2.381   1_556  S
Zr79         O88   2.388       .  S
Zr80         O99   2.437   1_556  S
Zr80         O92   2.435       .  S
Zr80         O93   2.442       .  S
Zr80         O86   2.398       .  S
Zr80         O87   2.390   1_556  S
Zr81         O83   2.435       .  S
Zr81        O105   2.439       .  S
Zr81        O107   2.400       .  S
Zr81         O85   2.394       .  S
Zr81         O88   2.394       .  S
Zr82        O108   2.436       .  S
Zr82        O109   2.435       .  S
Zr82         O84   2.438       .  S
Zr82         O85   2.384       .  S
Zr82         O86   2.394       .  S
O83         H120   0.990       .  S
O84         H115   0.990       .  S
O84         H129   0.990       .  S
O86         H112   0.966       .  S
O87         Zr97   2.380   1_554  S
O88         Zr97   2.383       .  S
O88         H113   0.966   1_556  S
C89        C3611   1.479       .  S
C90        C3515   1.476       .  S
C91        C3531   1.470       .  S
O92         H128   0.990       .  S
O93          C95   1.285   1_556  A
O94          C95   1.284       .  A
C95        C3544   1.476       .  S
O96         Zr97   2.436       .  S
O96         H125   0.990       .  S
Zr97        O100   2.435   1_556  S
Zr97        O101   2.443   1_556  S
Zr97        O102   2.398   1_556  S
O98         C103   1.285       .  A
O99         H116   0.990   1_554  S
O99         H131   0.990   1_554  S
O100        H117   0.990       .  S
O101        H121   0.990       .  S
O101        H130   0.990       .  S
O102        C103   1.278       .  A
C103       C3624   1.472       .  S
O104        H123   0.992       .  S
O104        H127   0.989       .  S
O105        H119   0.990       .  S
O105        H126   0.990       .  S
O106        C110   1.285       .  A
O107        C110   1.280       .  A
O108        H118   0.990       .  S
O109        H122   0.990       .  S
C110       C3496   1.473       .  S
Zr133       O134   2.443       .  S
Zr133       O135   2.467       .  S
Zr133       O136   2.456       .  S
Zr133       O139   2.458       .  S
Zr133       O141   2.393       .  S
Zr133       O142   2.383       .  S
Zr133       O143   2.419       .  S
Zr133       O144   2.403       .  S
O134        H190   0.990       .  S
O134        H198   0.991       .  S
O135        C155   1.290       .  A
O136        C157   1.286       .  A
O137       Zr147   2.407       .  S
O137        C156   1.279       .  A
O138       Zr146   2.422       .  S
O138        C157   1.282       .  A
O139        C156   1.288       .  A
O140       Zr148   2.401       .  S
O140        C155   1.277       .  A
O141       Zr146   2.398       .  S
O141       Zr148   2.379       .  S
O142       Zr147   2.380       .  S
O142       Zr148   2.384       .  S
O142        H177   0.965       .  S
O143       Zr146   2.404       .  S
O143       Zr163   2.388       .  S
O143        H180   0.965       .  S
O144       Zr147   2.383       .  S
O144       Zr163   2.390       .  S
Zr145       O170   2.441       .  S
Zr145       O164   2.451       .  S
Zr145       O172   2.476       .  S
Zr145       O160   2.443       .  S
Zr145       O151   2.394       .  S
Zr145       O152   2.419       .  S
Zr145       O153   2.383       .  S
Zr145       O154   2.389       .  S
Zr146       O165   2.437       .  S
Zr146       O158   2.435       .  S
Zr146       O159   2.433       .  S
Zr146       O152   2.401       .  S
Zr146       O153   2.392       .  S
Zr147       O149   2.435       .  S
Zr147       O171   2.439       .  S
Zr147       O173   2.393       .  S
Zr147       O151   2.387       .  S
Zr147       O154   2.393       .  S
Zr148       O174   2.436       .  S
Zr148       O175   2.435       .  S
Zr148       O150   2.439       .  S
Zr148       O151   2.385       .  S
Zr148       O152   2.393       .  S
O149        H186   0.990       .  S
O150        H181   0.990       .  S
O150        H195   0.990       .  S
O152        H178   0.965       .  S
O153       Zr163   2.375       .  S
O154       Zr163   2.384       .  S
O154        H179   0.966       .  S
C155       C3480   1.476       .  S
C156       C3435   1.470       .  S
C157       C3448   1.471       .  S
O158        H194   0.990       .  S
O159        C161   1.284       .  A
O160        C161   1.286       .  A
C161       C3547   1.477       .  S
O162       Zr163   2.439       .  S
O162        H191   0.991       .  S
Zr163       O166   2.438       .  S
Zr163       O167   2.438       .  S
Zr163       O168   2.407       .  S
O164        C169   1.286       .  A
O165        H182   0.990       .  S
O165        H197   0.990       .  S
O166        H183   0.990       .  S
O167        H187   0.990       .  S
O167        H196   0.990       .  S
O168        C169   1.279       .  A
C169       C3467   1.475       .  S
O170        H189   0.990       .  S
O170        H193   0.990       .  S
O171        H185   0.990       .  S
O171        H192   0.990       .  S
O172        C176   1.290       .  A
O173        C176   1.278       .  A
O174        H184   0.990       .  S
O175        H188   0.990       .  S
C176       C3416   1.478       .  S
Zr199       O200   2.443       .  S
Zr199       O201   2.457       .  S
Zr199       O202   2.441       .  S
Zr199       O205   2.449       .  S
Zr199       O207   2.389       .  S
Zr199       O208   2.380       .  S
Zr199       O209   2.417       .  S
Zr199       O210   2.399       .  S
O200        H256   0.990       .  S
O200        H264   0.990       .  S
O201        C221   1.287       .  A
O202        C223   1.284       .  A
O203       Zr213   2.419       .  S
O203        C222   1.281       .  A
O204       Zr212   2.434       .  S
O204        C223   1.285       .  A
O205        C222   1.287       .  A
O206       Zr214   2.410       .  S
O206        C221   1.279       .  A
O207       Zr212   2.405       .  S
O207       Zr214   2.380       .  S
O208       Zr213   2.386       .  S
O208       Zr214   2.382       .  S
O208        H243   0.965       .  S
O209       Zr212   2.406       .  S
O209       Zr229   2.395       .  S
O209        H246   0.965       .  S
O210       Zr213   2.386       .  S
O210       Zr229   2.391       .  S
Zr211       O236   2.444       .  S
Zr211       O230   2.452       .  S
Zr211       O238   2.450       .  S
Zr211       O226   2.418       .  S
Zr211       O217   2.398       .  S
Zr211       O218   2.420       .  S
Zr211       O219   2.377       .  S
Zr211       O220   2.380       .  S
Zr212       O231   2.435       .  S
Zr212       O224   2.435       .  S
Zr212       O225   2.449       .  S
Zr212       O218   2.400       .  S
Zr212       O219   2.397       .  S
Zr213       O215   2.436       .  S
Zr213       O237   2.441       .  S
Zr213       O239   2.412       .  S
Zr213       O217   2.382       .  S
Zr213       O220   2.399       .  S
Zr214       O240   2.435       .  S
Zr214       O241   2.435       .  S
Zr214       O216   2.436       .  S
Zr214       O217   2.385       .  S
Zr214       O218   2.387       .  S
O215        H252   0.990       .  S
O216        H247   0.990       .  S
O216        H261   0.990       .  S
O218        H244   0.965       .  S
O219       Zr229   2.376       .  S
O220       Zr229   2.386       .  S
O220        H245   0.966       .  S
C221       C3464   1.478       .  S
C222       C3384   1.470       .  S
C223       C3400   1.473       .  S
O224        H260   0.990       .  S
O225        C227   1.287       .  A
O226        C227   1.280       .  A
C227       C3643   1.472       .  S
O228       Zr229   2.438       .  S
O228        H257   0.990       .  S
Zr229       O232   2.440       .  S
Zr229       O233   2.439       .  S
Zr229       O234   2.409       .  S
O230        C235   1.285       .  A
O231        H248   0.990       .  S
O231        H263   0.990       .  S
O232        H249   0.990       .  S
O233        H253   0.990       .  S
O233        H262   0.990       .  S
O234        C235   1.278       .  A
C235       C3483   1.477       .  S
O236        H255   0.991       .  S
O236        H259   0.991       .  S
O237        H251   0.990       .  S
O237        H258   0.990       .  S
O238        C242   1.286       .  A
O239        C242   1.281       .  A
O240        H250   0.990       .  S
O241        H254   0.991       .  S
C242       C3368   1.463       .  S
Zr265       O266   2.443       .  S
Zr265       O267   2.459       .  S
Zr265       O268   2.458       .  S
Zr265       O271   2.426       .  S
Zr265       O273   2.382       .  S
Zr265       O274   2.388       .  S
Zr265       O275   2.415       .  S
Zr265       O276   2.412       .  S
O266        H322   0.990       .  S
O266        H330   0.991       .  S
O267        C287   1.287       .  A
O268        C289   1.285       .  A
O269       Zr279   2.442       .  S
O269        C288   1.286       .  A
O270       Zr278   2.419       .  S
O270        C289   1.279       .  A
O271        C288   1.283       .  A
O272       Zr280   2.393       .  S
O272        C287   1.277       .  A
O273       Zr278   2.398       .  S
O273       Zr280   2.387       .  S
O274       Zr279   2.393       .  S
O274       Zr280   2.378       .  S
O274        H309   0.966       .  S
O275       Zr278   2.394       .  S
O275       Zr295   2.383       .  S
O275        H312   0.964       .  S
O276       Zr279   2.389       .  S
O276       Zr295   2.392       .  S
Zr277       O302   2.441   1_554  S
Zr277       O296   2.439   1_554  S
Zr277       O304   2.438       .  S
Zr277       O292   2.464       .  S
Zr277       O283   2.399       .  S
Zr277       O284   2.405       .  S
Zr277       O285   2.377       .  S
Zr277       O286   2.394       .  S
Zr278       O297   2.439       .  S
Zr278       O290   2.435       .  S
Zr278       O291   2.422       .  S
Zr278       O284   2.396       .  S
Zr278       O285   2.392       .  S
Zr279       O281   2.436       .  S
Zr279       O303   2.439       .  S
Zr279       O305   2.430       .  S
Zr279       O283   2.391       .  S
Zr279       O286   2.401       .  S
Zr280       O306   2.436       .  S
Zr280       O307   2.436       .  S
Zr280       O282   2.437       .  S
Zr280       O283   2.378       .  S
Zr280       O284   2.381       .  S
O281        H318   0.990       .  S
O282        H313   0.990       .  S
O282        H327   0.990       .  S
O284        H310   0.963       .  S
O285       Zr295   2.385       .  S
O286       Zr295   2.382       .  S
O286        H311   0.966       .  S
C287       C3336   1.474       .  S
C288       C3355   1.473       .  S
C289       C3272   1.468       .  S
O290        H326   0.990       .  S
O291        C293   1.281       .  A
O292        C293   1.288       .  A
C293       C3288   1.475       .  S
O294       Zr295   2.440       .  S
O294        H323   0.990       .  S
Zr295       O298   2.438   1_554  S
Zr295       O299   2.443   1_554  S
Zr295       O300   2.402   1_554  S
O296        C301   1.283       .  A
O297        H314   0.990       .  S
O297        H329   0.990       .  S
O298        H315   0.990       .  S
O299        H319   0.990       .  S
O299        H328   0.989       .  S
O300        C301   1.278       .  A
C301       C3323   1.469       .  S
O302        H321   0.991   1_556  S
O302        H325   0.990       .  S
O303        H317   0.990       .  S
O303        H324   0.990       .  S
O304        C308   1.285       .  A
O305        C308   1.284       .  A
O306        H316   0.990       .  S
O307        H320   0.990       .  S
C308       C3304   1.473       .  S
Zr331       O332   2.443       .  S
Zr331       O333   2.451       .  S
Zr331       O334   2.462       .  S
Zr331       O337   2.428       .  S
Zr331       O339   2.383       .  S
Zr331       O340   2.387       .  S
Zr331       O341   2.411       .  S
Zr331       O342   2.409       .  S
O332        H388   0.990       .  S
O332        H396   0.991       .  S
O333        C353   1.286       .  A
O334        C355   1.287       .  A
O335       Zr345   2.447       .  S
O335        C354   1.286       .  A
O336       Zr344   2.413       .  S
O336        C355   1.281       .  A
O337        C354   1.283       .  A
O338       Zr346   2.396       .  S
O338        C353   1.278       .  A
O339       Zr344   2.397       .  S
O339       Zr346   2.387       .  S
O340       Zr345   2.389       .  S
O340       Zr346   2.381       .  S
O340        H375   0.966       .  S
O341       Zr344   2.396       .  S
O341       Zr361   2.381       .  S
O341        H378   0.964       .  S
O342       Zr345   2.387       .  S
O342       Zr361   2.394       .  S
Zr343       O368   2.441       .  S
Zr343       O362   2.443       .  S
Zr343       O370   2.438       .  S
Zr343       O358   2.461       .  S
Zr343       O349   2.401       .  S
Zr343       O350   2.405       .  S
Zr343       O351   2.375       .  S
Zr343       O352   2.393       .  S
Zr344       O363   2.437       .  S
Zr344       O356   2.435       .  S
Zr344       O357   2.416       .  S
Zr344       O350   2.397       .  S
Zr344       O351   2.391       .  S
Zr345       O347   2.434       .  S
Zr345       O369   2.438       .  S
Zr345       O371   2.416       .  S
Zr345       O349   2.397       .  S
Zr345       O352   2.399       .  S
Zr346       O372   2.436       .  S
Zr346       O373   2.435       .  S
Zr346       O348   2.438       .  S
Zr346       O349   2.382       .  S
Zr346       O350   2.382       .  S
O347        H384   0.990       .  S
O348        H379   0.990       .  S
O348        H393   0.990       .  S
O350        H376   0.965       .  S
O351       Zr361   2.380       .  S
O352       Zr361   2.373       .  S
O352        H377   0.965       .  S
C353       C3320   1.471       .  S
C354       C3256   1.479       .  S
C355       C3208   1.475       .  S
O356        H392   0.990       .  S
O357        C359   1.280       .  A
O358        C359   1.288       .  A
C359       C3224   1.469       .  S
O360       Zr361   2.439       .  S
O360        H389   0.990       .  S
Zr361       O364   2.438       .  S
Zr361       O365   2.438       .  S
Zr361       O366   2.408       .  S
O362        C367   1.284       .  A
O363        H380   0.990       .  S
O363        H395   0.990       .  S
O364        H381   0.990       .  S
O365        H385   0.990       .  S
O365        H394   0.990       .  S
O366        C367   1.280       .  A
C367       C3339   1.474       .  S
O368        H387   0.991       .  S
O368        H391   0.990       .  S
O369        H383   0.990       .  S
O369        H390   0.990       .  S
O370        C374   1.286       .  A
O371        C374   1.281       .  A
O372        H382   0.990       .  S
O373        H386   0.990       .  S
C374       C3243   1.469       .  S
Zr397       O398   2.443       .  S
Zr397       O399   2.452       .  S
Zr397       O400   2.471       .  S
Zr397       O403   2.433       .  S
Zr397       O405   2.383       .  S
Zr397       O406   2.391       .  S
Zr397       O407   2.414       .  S
Zr397       O408   2.411       .  S
O398        H454   0.990       .  S
O398        H462   0.991       .  S
O399        C419   1.286       .  A
O400        C421   1.288       .  A
O401       Zr411   2.429       .  S
O401        C420   1.284       .  A
O402       Zr410   2.408       .  S
O402        C421   1.280       .  A
O403        C420   1.285       .  A
O404       Zr412   2.412       .  S
O404        C419   1.280       .  A
O405       Zr410   2.398       .  S
O405       Zr412   2.385       .  S
O406       Zr411   2.390       .  S
O406       Zr412   2.369       .  S
O406        H441   0.966       .  S
O407       Zr410   2.398       .  S
O407       Zr427   2.381       .  S
O407        H444   0.963       .  S
O408       Zr411   2.391       .  S
O408       Zr427   2.384       .  S
Zr409       O434   2.442       .  S
Zr409       O428   2.464       .  S
Zr409       O436   2.437       .  S
Zr409       O424   2.457       .  S
Zr409       O415   2.416       .  S
Zr409       O416   2.416       .  S
Zr409       O417   2.373       .  S
Zr409       O418   2.389       .  S
Zr410       O429   2.438       .  S
Zr410       O422   2.434       .  S
Zr410       O423   2.426       .  S
Zr410       O416   2.393       .  S
Zr410       O417   2.392       .  S
Zr411       O413   2.433       .  S
Zr411       O435   2.440       .  S
Zr411       O437   2.427       .  S
Zr411       O415   2.396       .  S
Zr411       O418   2.396       .  S
Zr412       O438   2.434       .  S
Zr412       O439   2.436       .  S
Zr412       O414   2.438       .  S
Zr412       O415   2.397       .  S
Zr412       O416   2.388       .  S
O413        H450   0.990       .  S
O414        H445   0.990       .  S
O414        H459   0.990       .  S
O416        H442   0.964       .  S
O417       Zr427   2.388       .  S
O418       Zr427   2.372       .  S
O418        H443   0.965       .  S
C419       C3192   1.477       .  S
C420       C3352   1.473       .  S
C421       C3144   1.477       .  S
O422        H458   0.990       .  S
O423        C425   1.282       .  A
O424        C425   1.288       .  A
C425       C3595   1.472       .  S
O426       Zr427   2.435       .  S
O426        H455   0.990       .  S
Zr427       O430   2.434       .  S
Zr427       O431   2.439       .  S
Zr427       O432   2.397       .  S
O428        C433   1.288       .  A
O429        H446   0.990       .  S
O429        H461   0.990       .  S
O430        H447   0.990       .  S
O431        H451   0.990       .  S
O431        H460   0.990       .  S
O432        C433   1.276       .  A
C433       C3179   1.477       .  S
O434        H453   0.990       .  S
O434        H457   0.990       .  S
O435        H449   0.990       .  S
O435        H456   0.990       .  S
O436        C440   1.285       .  A
O437        C440   1.284       .  A
O438        H448   0.990       .  S
O439        H452   0.990       .  S
C440       C3160   1.472       .  S
Zr463       O464   2.442       .  S
Zr463       O465   2.457       .  S
Zr463       O466   2.457       .  S
Zr463       O469   2.435       .  S
Zr463       O471   2.386       .  S
Zr463       O472   2.384       .  S
Zr463       O473   2.419       .  S
Zr463       O474   2.412       .  S
O464        H520   0.990       .  S
O464        H528   0.990       .  S
O465        C485   1.287       .  A
O466        C487   1.285       .  A
O467       Zr477   2.435       .  S
O467        C486   1.284       .  A
O468       Zr476   2.414       .  S
O468        C487   1.278       .  A
O469        C486   1.285       .  A
O470       Zr478   2.405       .  S
O470        C485   1.278       .  A
O471       Zr476   2.395       .  S
O471       Zr478   2.382       .  S
O472       Zr477   2.390       .  S
O472       Zr478   2.374       .  S
O472        H507   0.966       .  S
O473       Zr476   2.397       .  S
O473       Zr493   2.386       .  S
O473        H510   0.965       .  S
O474       Zr477   2.390       .  S
O474       Zr493   2.398       .  S
Zr475       O500   2.442       .  S
Zr475       O494   2.448       .  S
Zr475       O502   2.447       .  S
Zr475       O490   2.451       .  S
Zr475       O481   2.403       .  S
Zr475       O482   2.412       .  S
Zr475       O483   2.377       .  S
Zr475       O484   2.390       .  S
Zr476       O495   2.440       .  S
Zr476       O488   2.436       .  S
Zr476       O489   2.414       .  S
Zr476       O482   2.396       .  S
Zr476       O483   2.390       .  S
Zr477       O479   2.434       .  S
Zr477       O501   2.437       .  S
Zr477       O503   2.421       .  S
Zr477       O481   2.392       .  S
Zr477       O484   2.399       .  S
Zr478       O504   2.436       .  S
Zr478       O505   2.435       .  S
Zr478       O480   2.439       .  S
Zr478       O481   2.387       .  S
Zr478       O482   2.389       .  S
O479        H516   0.990       .  S
O480        H511   0.990       .  S
O480        H525   0.990       .  S
O482        H508   0.965       .  S
O483       Zr493   2.377       .  S
O484       Zr493   2.373       .  S
O484        H509   0.967       .  S
C485       C3176   1.475       .  S
C486       C3259   1.478       .  S
C487       C3112   1.470       .  S
O488        H524   0.990       .  S
O489        C491   1.280       .  A
O490        C491   1.286       .  A
C491       C3528   1.467       .  S
O492       Zr493   2.436       .  S
O492        H521   0.990       .  S
Zr493       O496   2.436       .  S
Zr493       O497   2.436       .  S
Zr493       O498   2.410       .  S
O494        C499   1.285       .  A
O495        H512   0.990       .  S
O495        H527   0.990       .  S
O496        H513   0.990       .  S
O497        H517   0.990       .  S
O497        H526   0.990       .  S
O498        C499   1.280       .  A
C499       C3195   1.477       .  S
O500        H519   0.991       .  S
O500        H523   0.991       .  S
O501        H515   0.990       .  S
O501        H522   0.990       .  S
O502        C506   1.287       .  A
O503        C506   1.283       .  A
O504        H514   0.990       .  S
O505        H518   0.990       .  S
C506       C3128   1.475       .  S
Zr529       O530   2.443       .  S
Zr529       O531   2.465       .  S
Zr529       O532   2.456       .  S
Zr529       O535   2.456       .  S
Zr529       O537   2.389       .  S
Zr529       O538   2.384       .  S
Zr529       O539   2.422       .  S
Zr529       O540   2.404       .  S
O530        H586   0.990       .  S
O530        H594   0.991       .  S
O531        C551   1.288       .  A
O532        C553   1.287       .  A
O533       Zr543   2.419       .  S
O533        C552   1.281       .  A
O534       Zr542   2.446       .  S
O534        C553   1.287       .  A
O535        C552   1.288       .  A
O536       Zr544   2.390       .  S
O536        C551   1.276       .  A
O537       Zr542   2.402       .  S
O537       Zr544   2.380       .  S
O538       Zr543   2.387       .  S
O538       Zr544   2.384       .  S
O538        H573   0.965       .  S
O539       Zr542   2.410       .  S
O539       Zr559   2.396       .  S
O539        H576   0.965       .  S
O540       Zr543   2.385       .  S
O540       Zr559   2.390       .  S
Zr541       O566   2.441       .  S
Zr541       O560   2.447       .  S
Zr541       O568   2.465       .  S
Zr541       O556   2.433       .  S
Zr541       O547   2.392       .  S
Zr541       O548   2.414       .  S
Zr541       O549   2.385       .  S
Zr541       O550   2.384       .  S
Zr542       O561   2.438       .  S
Zr542       O554   2.436       .  S
Zr542       O555   2.459       .  S
Zr542       O548   2.402       .  S
Zr542       O549   2.397       .  S
Zr543       O545   2.435       .  S
Zr543       O567   2.438       .  S
Zr543       O569   2.406       .  S
Zr543       O547   2.386       .  S
Zr543       O550   2.393       .  S
Zr544       O570   2.436       .  S
Zr544       O571   2.435       .  S
Zr544       O546   2.437       .  S
Zr544       O547   2.383       .  S
Zr544       O548   2.377       .  S
O545        H582   0.990       .  S
O546        H577   0.990       .  S
O546        H591   0.990       .  S
O548        H574   0.965       .  S
O549       Zr559   2.381       .  S
O550       Zr559   2.382       .  S
O550        H575   0.966       .  S
C551       C3080   1.472       .  S
C552       C3163   1.474       .  S
C553       C3051   1.482       .  S
O554        H590   0.990       .  S
O555        C557   1.289       .  A
O556        C557   1.284       .  A
C557       C3096   1.480       .  S
O558       Zr559   2.439       .  S
O558        H587   0.990       .  S
Zr559       O562   2.437       .  S
Zr559       O563   2.439       .  S
Zr559       O564   2.412       .  S
O560        C565   1.285       .  A
O561        H578   0.990       .  S
O561        H593   0.990       .  S
O562        H579   0.989       .  S
O563        H583   0.990       .  S
O563        H592   0.990       .  S
O564        C565   1.280       .  A
C565       C3064   1.478       .  S
O566        H585   0.990       .  S
O566        H589   0.990       .  S
O567        H581   0.990       .  S
O567        H588   0.990       .  S
O568        C572   1.288       .  A
O569        C572   1.280       .  A
O570        H580   0.990       .  S
O571        H584   0.990       .  S
C572       C3032   1.469       .  S
Zr595       O596   2.442       .  S
Zr595       O597   2.449       .  S
Zr595       O598   2.442       .  S
Zr595       O601   2.447       .  S
Zr595       O603   2.388       .  S
Zr595       O604   2.382       .  S
Zr595       O605   2.412       .  S
Zr595       O606   2.395       .  S
O596        H652   0.990       .  S
O596        H660   0.991       .  S
O597        C617   1.286       .  A
O598        C619   1.285       .  A
O599       Zr609   2.423       .  S
O599        C618   1.283       .  A
O600       Zr608   2.425       .  S
O600        C619   1.282       .  A
O601        C618   1.286       .  A
O602       Zr610   2.418       .  S
O602        C617   1.281       .  A
O603       Zr608   2.403       .  S
O603       Zr610   2.378       .  S
O604       Zr609   2.382       .  S
O604       Zr610   2.381       .  S
O604        H639   0.965       .  S
O605       Zr608   2.405       .  S
O605       Zr625   2.389   1_556  S
O605        H642   0.965       .  S
O606       Zr609   2.381       .  S
O606       Zr625   2.380   1_556  S
Zr607       O632   2.441   1_556  S
Zr607       O626   2.455   1_556  S
Zr607       O634   2.456       .  S
Zr607       O622   2.448   1_556  S
Zr607       O613   2.406       .  S
Zr607       O614   2.415       .  S
Zr607       O615   2.379   1_556  S
Zr607       O616   2.387       .  S
Zr608       O627   2.437   1_556  S
Zr608       O620   2.435       .  S
Zr608       O621   2.434   1_556  S
Zr608       O614   2.398       .  S
Zr608       O615   2.392   1_556  S
Zr609       O611   2.435       .  S
Zr609       O633   2.438       .  S
Zr609       O635   2.408       .  S
Zr609       O613   2.393       .  S
Zr609       O616   2.391       .  S
Zr610       O636   2.435       .  S
Zr610       O637   2.436       .  S
Zr610       O612   2.438       .  S
Zr610       O613   2.396       .  S
Zr610       O614   2.401       .  S
O611        H648   0.990       .  S
O612        H643   0.990       .  S
O612        H657   0.990       .  S
O614        H640   0.965       .  S
O615       Zr625   2.380       .  S
O616       Zr625   2.383   1_556  S
O616        H641   0.966   1_556  S
C617       C3067   1.477       .  S
C618       C3131   1.474       .  S
C619       C3003   1.470       .  S
O620        H656   0.990       .  S
O621        C623   1.284       .  A
O622        C623   1.286       .  A
C623       C3019   1.480       .  S
O624       Zr625   2.439   1_556  S
O624        H653   0.990   1_556  S
Zr625       O628   2.437       .  S
Zr625       O629   2.440       .  S
Zr625       O630   2.397       .  S
O626        C631   1.287       .  A
O627        H644   0.990   1_554  S
O627        H659   0.990   1_554  S
O628        H645   0.990       .  S
O629        H649   0.990       .  S
O629        H658   0.990   1_554  S
O630        C631   1.277       .  A
C631       C3083   1.471       .  S
O632        H651   0.990       .  S
O632        H655   0.990       .  S
O633        H647   0.990       .  S
O633        H654   0.990       .  S
O634        C638   1.287       .  A
O635        C638   1.279       .  A
O636        H646   0.990       .  S
O637        H650   0.990       .  S
C638       C2987   1.470       .  S
Zr661       O662   2.444       .  S
Zr661       O663   2.462       .  S
Zr661       O664   2.447       .  S
Zr661       O667   2.449       .  S
Zr661       O669   2.387       .  S
Zr661       O670   2.383       .  S
Zr661       O671   2.420       .  S
Zr661       O672   2.401       .  S
O662        H718   0.990       .  S
O662        H726   0.991       .  S
O663        C683   1.288       .  A
O664        C685   1.285       .  A
O665       Zr675   2.425       .  S
O665        C684   1.283       .  A
O666       Zr674   2.442       .  S
O666        C685   1.286       .  A
O667        C684   1.287       .  A
O668       Zr676   2.395       .  S
O668        C683   1.276       .  A
O669       Zr674   2.402       .  S
O669       Zr676   2.379       .  S
O670       Zr675   2.392       .  S
O670       Zr676   2.387       .  S
O670        H705   0.966       .  S
O671       Zr674   2.404       .  S
O671       Zr691   2.393       .  S
O671        H708   0.965       .  S
O672       Zr675   2.377       .  S
O672       Zr691   2.382       .  S
Zr673       O698   2.441       .  S
Zr673       O692   2.452       .  S
Zr673       O700   2.475       .  S
Zr673       O688   2.441       .  S
Zr673       O679   2.392       .  S
Zr673       O680   2.416       .  S
Zr673       O681   2.386       .  S
Zr673       O682   2.384       .  S
Zr674       O693   2.436       .  S
Zr674       O686   2.435       .  S
Zr674       O687   2.445       .  S
Zr674       O680   2.406       .  S
Zr674       O681   2.394       .  S
Zr675       O677   2.440       .  S
Zr675       O699   2.436       .  S
Zr675       O701   2.401       .  S
Zr675       O679   2.390       .  S
Zr675       O682   2.393       .  S
Zr676       O702   2.437       .  S
Zr676       O703   2.435       .  S
Zr676       O678   2.437       .  S
Zr676       O679   2.383       .  S
Zr676       O680   2.387       .  S
O677        H714   0.990       .  S
O678        H709   0.990       .  S
O678        H723   0.990       .  S
O680        H706   0.965       .  S
O681       Zr691   2.378       .  S
O682       Zr691   2.380       .  S
O682        H707   0.965       .  S
C683       C2971   1.473       .  S
C684       C2939   1.476       .  S
C685       C2920   1.480       .  S
O686        H722   0.990       .  S
O687        C689   1.286       .  A
O688        C689   1.286       .  A
C689       C3016   1.479       .  S
O690       Zr691   2.437       .  S
O690        H719   0.990       .  S
Zr691       O694   2.437       .  S
Zr691       O695   2.440       .  S
Zr691       O696   2.403       .  S
O692        C697   1.286       .  A
O693        H710   0.990       .  S
O693        H725   0.990       .  S
O694        H711   0.990       .  S
O695        H715   0.990       .  S
O695        H724   0.990       .  S
O696        C697   1.279       .  A
C697       C2955   1.475       .  S
O698        H717   0.990       .  S
O698        H721   0.990       .  S
O699        H713   0.990       .  S
O699        H720   0.990       .  S
O700        C704   1.290       .  A
O701        C704   1.278       .  A
O702        H712   0.990       .  S
O703        H716   0.990       .  S
C704       C2904   1.472       .  S
Zr727       O728   2.443       .  S
Zr727       O729   2.441       .  S
Zr727       O730   2.448       .  S
Zr727       O733   2.444       .  S
Zr727       O735   2.387       .  S
Zr727       O736   2.381       .  S
Zr727       O737   2.413       .  S
Zr727       O738   2.398       .  S
O728        H784   0.990       .  S
O728        H792   0.990       .  S
O729        C749   1.283       .  A
O730        C751   1.286       .  A
O731       Zr741   2.414       .  S
O731        C750   1.280       .  A
O732       Zr740   2.434       .  S
O732        C751   1.284       .  A
O733        C750   1.286       .  A
O734       Zr742   2.417       .  S
O734        C749   1.280       .  A
O735       Zr740   2.400       .  S
O735       Zr742   2.380       .  S
O736       Zr741   2.390       .  S
O736       Zr742   2.378       .  S
O736        H771   0.965       .  S
O737       Zr740   2.403       .  S
O737       Zr757   2.388       .  S
O737        H774   0.965       .  S
O738       Zr741   2.385       .  S
O738       Zr757   2.381       .  S
Zr739       O764   2.441       .  S
Zr739       O758   2.456       .  S
Zr739       O766   2.471       .  S
Zr739       O754   2.444       .  S
Zr739       O745   2.394       .  S
Zr739       O746   2.420       .  S
Zr739       O747   2.380       .  S
Zr739       O748   2.387       .  S
Zr740       O759   2.438       .  S
Zr740       O752   2.434       .  S
Zr740       O753   2.437       .  S
Zr740       O746   2.400       .  S
Zr740       O747   2.390       .  S
Zr741       O743   2.435       .  S
Zr741       O765   2.440       .  S
Zr741       O767   2.405       .  S
Zr741       O745   2.385       .  S
Zr741       O748   2.389       .  S
Zr742       O768   2.437       .  S
Zr742       O769   2.435       .  S
Zr742       O744   2.437       .  S
Zr742       O745   2.382       .  S
Zr742       O746   2.405       .  S
O743        H780   0.990       .  S
O744        H775   0.990       .  S
O744        H789   0.990       .  S
O746        H772   0.966       .  S
O747       Zr757   2.377       .  S
O748       Zr757   2.387       .  S
O748        H773   0.965       .  S
C749       C2952   1.474       .  S
C750       C2888   1.468       .  S
C751       C2875   1.474       .  S
O752        H788   0.990       .  S
O753        C755   1.284       .  A
O754        C755   1.286       .  A
C755       C3099   1.478       .  S
O756       Zr757   2.438       .  S
O756        H785   0.990       .  S
Zr757       O760   2.437       .  S
Zr757       O761   2.439       .  S
Zr757       O762   2.392       .  S
O758        C763   1.287       .  A
O759        H776   0.990       .  S
O759        H791   0.990       .  S
O760        H777   0.990       .  S
O761        H781   0.990       .  S
O761        H790   0.990       .  S
O762        C763   1.276       .  A
C763       C2968   1.469       .  S
O764        H783   0.990       .  S
O764        H787   0.990       .  S
O765        H779   0.990       .  S
O765        H786   0.990       .  S
O766        C770   1.290       .  A
O767        C770   1.281       .  A
O768        H778   0.990       .  S
O769        H782   0.990       .  S
C770       C2856   1.478       .  S
Zr793       O794   2.441       .  S
Zr793       O795   2.437       .  S
Zr793       O796   2.477       .  S
Zr793       O799   2.447       .  S
Zr793       O801   2.386       .  S
Zr793       O802   2.388       .  S
Zr793       O803   2.409       .  S
Zr793       O804   2.407       .  S
O794        H850   0.990       .  S
O794        H858   0.990       .  S
O795        C815   1.283       .  A
O796        C817   1.291       .  A
O797       Zr807   2.423       .  S
O797        C816   1.283       .  A
O798       Zr806   2.403       .  S
O798        C817   1.280       .  A
O799        C816   1.288       .  A
O800       Zr808   2.408       .  S
O800        C815   1.279       .  A
O801       Zr806   2.396       .  S
O801       Zr808   2.381       .  S
O802       Zr807   2.389       .  S
O802       Zr808   2.370       .  S
O802        H837   0.966       .  S
O803       Zr806   2.406       .  S
O803       Zr823   2.379       .  S
O803        H840   0.964       .  S
O804       Zr807   2.395       .  S
O804       Zr823   2.388       .  S
Zr805       O830   2.442   1_554  S
Zr805       O824   2.457   1_554  S
Zr805       O832   2.438       .  S
Zr805       O820   2.458       .  S
Zr805       O811   2.408       .  S
Zr805       O812   2.411       .  S
Zr805       O813   2.376       .  S
Zr805       O814   2.391       .  S
Zr806       O825   2.436       .  S
Zr806       O818   2.435       .  S
Zr806       O819   2.426       .  S
Zr806       O812   2.390       .  S
Zr806       O813   2.391       .  S
Zr807       O809   2.436       .  S
Zr807       O831   2.437       .  S
Zr807       O833   2.423       .  S
Zr807       O811   2.392       .  S
Zr807       O814   2.394       .  S
Zr808       O834   2.436       .  S
Zr808       O835   2.435       .  S
Zr808       O810   2.436       .  S
Zr808       O811   2.394       .  S
Zr808       O812   2.385       .  S
O809        H846   0.990       .  S
O810        H841   0.990       .  S
O810        H855   0.990       .  S
O812        H838   0.965       .  S
O813       Zr823   2.387       .  S
O814       Zr823   2.378       .  S
O814        H839   0.965       .  S
C815       C2827   1.471       .  S
C816       C2840   1.479       .  S
C817       C2760   1.478       .  S
O818        H854   0.990       .  S
O819        C821   1.283       .  A
O820        C821   1.287       .  A
C821       C2792   1.477       .  S
O822       Zr823   2.439       .  S
O822        H851   0.991   1_554  S
Zr823       O826   2.437   1_554  S
Zr823       O827   2.440   1_554  S
Zr823       O828   2.391   1_554  S
O824        C829   1.287       .  A
O825        H842   0.990       .  S
O825        H857   0.990       .  S
O826        H843   0.990       .  S
O827        H847   0.990       .  S
O827        H856   0.990   1_556  S
O828        C829   1.276       .  A
C829       C2811   1.474       .  S
O830        H849   0.991   1_556  S
O830        H853   0.990       .  S
O831        H845   0.990       .  S
O831        H852   0.990       .  S
O832        C836   1.285       .  A
O833        C836   1.282       .  A
O834        H844   0.990       .  S
O835        H848   0.990       .  S
C836       C2776   1.471       .  S
Zr859       O860   2.442       .  S
Zr859       O861   2.449       .  S
Zr859       O862   2.469       .  S
Zr859       O865   2.427       .  S
Zr859       O867   2.380       .  S
Zr859       O868   2.391       .  S
Zr859       O869   2.413       .  S
Zr859       O870   2.412       .  S
O860        H916   0.990       .  S
O860        H924   0.990       .  S
O861        C881   1.285       .  A
O862        C883   1.288       .  A
O863       Zr873   2.438       .  S
O863        C882   1.285       .  A
O864       Zr872   2.408       .  S
O864        C883   1.280       .  A
O865        C882   1.284       .  A
O866       Zr874   2.411       .  S
O866        C881   1.280       .  A
O867       Zr872   2.395       .  S
O867       Zr874   2.384       .  S
O868       Zr873   2.391       .  S
O868       Zr874   2.376       .  S
O868        H903   0.966       .  S
O869       Zr872   2.400       .  S
O869       Zr889   2.385       .  S
O869        H906   0.964       .  S
O870       Zr873   2.393       .  S
O870       Zr889   2.389       .  S
Zr871       O896   2.442       .  S
Zr871       O890   2.445       .  S
Zr871       O898   2.432       .  S
Zr871       O886   2.444       .  S
Zr871       O877   2.404       .  S
Zr871       O878   2.408       .  S
Zr871       O879   2.372       .  S
Zr871       O880   2.386       .  S
Zr872       O891   2.438       .  S
Zr872       O884   2.435       .  S
Zr872       O885   2.419       .  S
Zr872       O878   2.391       .  S
Zr872       O879   2.390       .  S
Zr873       O875   2.435       .  S
Zr873       O897   2.438       .  S
Zr873       O899   2.430       .  S
Zr873       O877   2.393       .  S
Zr873       O880   2.395       .  S
Zr874       O900   2.435       .  S
Zr874       O901   2.437       .  S
Zr874       O876   2.437       .  S
Zr874       O877   2.393       .  S
Zr874       O878   2.387       .  S
O875        H912   0.990       .  S
O876        H907   0.990       .  S
O876        H921   0.990       .  S
O878        H904   0.965       .  S
O879       Zr889   2.383       .  S
O880       Zr889   2.375       .  S
O880        H905   0.966       .  S
C881       C2808   1.476       .  S
C882       C2744   1.476       .  S
C883       C2696   1.476       .  S
O884        H920   0.990       .  S
O885        C887   1.281       .  A
O886        C887   1.285       .  A
C887       C2728   1.466       .  S
O888       Zr889   2.437       .  S
O888        H917   0.990       .  S
Zr889       O892   2.436       .  S
Zr889       O893   2.440       .  S
Zr889       O894   2.404       .  S
O890        C895   1.285       .  A
O891        H908   0.990       .  S
O891        H923   0.990       .  S
O892        H909   0.990       .  S
O893        H913   0.990       .  S
O893        H922   0.990       .  S
O894        C895   1.279       .  A
C895       C2824   1.473       .  S
O896        H915   0.991       .  S
O896        H919   0.990       .  S
O897        H911   0.990       .  S
O897        H918   0.990       .  S
O898        C902   1.284       .  A
O899        C902   1.284       .  A
O900        H910   0.990       .  S
O901        H914   0.990       .  S
C902       C2712   1.472       .  S
Zr925       O926   2.443       .  S
Zr925       O927   2.455       .  S
Zr925       O928   2.467       .  S
Zr925       O931   2.439       .  S
Zr925       O933   2.382       .  S
Zr925       O934   2.387       .  S
Zr925       O935   2.416       .  S
Zr925       O936   2.410       .  S
O926        H982   0.991       .  S
O926        H990   0.990       .  S
O927        C947   1.286       .  A
O928        C949   1.287       .  A
O929       Zr939   2.444       .  S
O929        C948   1.286       .  A
O930       Zr938   2.410       .  S
O930        C949   1.279       .  A
O931        C948   1.286       .  A
O932       Zr940   2.398       .  S
O932        C947   1.278       .  A
O933       Zr938   2.395       .  S
O933       Zr940   2.383       .  S
O934       Zr939   2.390       .  S
O934       Zr940   2.376       .  S
O934        H969   0.966       .  S
O935       Zr938   2.400       .  S
O935       Zr955   2.388       .  S
O935        H972   0.964       .  S
O936       Zr939   2.392       .  S
O936       Zr955   2.394       .  S
Zr937       O962   2.441       .  S
Zr937       O956   2.450       .  S
Zr937       O964   2.439       .  S
Zr937       O952   2.461       .  S
Zr937       O943   2.407       .  S
Zr937       O944   2.408       .  S
Zr937       O945   2.376       .  S
Zr937       O946   2.390       .  S
Zr938       O957   2.435       .  S
Zr938       O950   2.435       .  S
Zr938       O951   2.422       .  S
Zr938       O944   2.393       .  S
Zr938       O945   2.393       .  S
Zr939       O941   2.436       .  S
Zr939       O963   2.438       .  S
Zr939       O965   2.424       .  S
Zr939       O943   2.398       .  S
Zr939       O946   2.400       .  S
Zr940       O966   2.435       .  S
Zr940       O967   2.436       .  S
Zr940       O942   2.438       .  S
Zr940       O943   2.387       .  S
Zr940       O944   2.388       .  S
O941        H978   0.990       .  S
O942        H973   0.990       .  S
O942        H987   0.990       .  S
O944        H970   0.964       .  S
O945       Zr955   2.385       .  S
O946       Zr955   2.375       .  S
O946        H971   0.966       .  S
C947       C2680   1.474       .  S
C948       C2843   1.480       .  S
C949       C2648   1.472       .  S
O950        H986   0.990       .  S
O951        C953   1.281       .  A
O952        C953   1.288       .  A
C953       C3048   1.477       .  S
O954       Zr955   2.437       .  S
O954        H983   0.990       .  S
Zr955       O958   2.435       .  S
Zr955       O959   2.444       .  S
Zr955       O960   2.403       .  S
O956        C961   1.285       .  A
O957        H974   0.990       .  S
O957        H989   0.990       .  S
O958        H975   0.990       .  S
O959        H979   0.990       .  S
O959        H988   0.990       .  S
O960        C961   1.278       .  A
C961       C2664   1.475       .  S
O962        H981   0.990       .  S
O962        H985   0.990       .  S
O963        H977   0.990       .  S
O963        H984   0.990       .  S
O964        C968   1.286       .  A
O965        C968   1.284       .  A
O966        H976   0.990       .  S
O967        H980   0.990       .  S
C968       C3579   1.472       .  S
Zr991       O992   2.443       .  S
Zr991       O993   2.453       .  S
Zr991       O994   2.466       .  S
Zr991       O997   2.432       .  S
Zr991       O999   2.383       .  S
Zr991      O1000   2.392       .  S
Zr991      O1001   2.408       .  S
Zr991      O1002   2.415       .  S
O992       H1048   0.991       .  S
O992       H1056   0.990       .  S
O993       C1013   1.285       .  A
O994       C1015   1.287       .  A
O995      Zr1005   2.436       .  S
O995       C1014   1.286       .  A
O996      Zr1004   2.419       .  S
O996       C1015   1.281       .  A
O997       C1014   1.284       .  A
O998      Zr1006   2.396       .  S
O998       C1013   1.277       .  A
O999      Zr1004   2.398       .  S
O999      Zr1006   2.387       .  S
O1000     Zr1005   2.399       .  S
O1000     Zr1006   2.373       .  S
O1000      H1035   0.966       .  S
O1001     Zr1004   2.392       .  S
O1001     Zr1021   2.375       .  S
O1001      H1038   0.964       .  S
O1002     Zr1005   2.394       .  S
O1002     Zr1021   2.394       .  S
Zr1003     O1028   2.442       .  S
Zr1003     O1022   2.452       .  S
Zr1003     O1030   2.444       .  S
Zr1003     O1018   2.455       .  S
Zr1003     O1009   2.408       .  S
Zr1003     O1010   2.415       .  S
Zr1003     O1011   2.377       .  S
Zr1003     O1012   2.391       .  S
Zr1004     O1023   2.437       .  S
Zr1004     O1016   2.435       .  S
Zr1004     O1017   2.414       .  S
Zr1004     O1010   2.402       .  S
Zr1004     O1011   2.394       .  S
Zr1005     O1007   2.437       .  S
Zr1005     O1029   2.437       .  S
Zr1005     O1031   2.443       .  S
Zr1005     O1009   2.395       .  S
Zr1005     O1012   2.395       .  S
Zr1006     O1032   2.436       .  S
Zr1006     O1033   2.435       .  S
Zr1006     O1008   2.437       .  S
Zr1006     O1009   2.391       .  S
Zr1006     O1010   2.383       .  S
O1007      H1044   0.990       .  S
O1008      H1039   0.991       .  S
O1008      H1053   0.990       .  S
O1010      H1036   0.965       .  S
O1011     Zr1021   2.380       .  S
O1012     Zr1021   2.378       .  S
O1012      H1037   0.966       .  S
C1013      C2667   1.475       .  S
C1014      C2747   1.474       .  S
C1015      C2632   1.472       .  S
O1016      H1052   0.990       .  S
O1017      C1019   1.281       .  A
O1018      C1019   1.287       .  A
C1019      C3000   1.469       .  S
O1020     Zr1021   2.438       .  S
O1020      H1049   0.990       .  S
Zr1021     O1024   2.439       .  S
Zr1021     O1025   2.438       .  S
Zr1021     O1026   2.402       .  S
O1022      C1027   1.286       .  A
O1023      H1040   0.990       .  S
O1023      H1055   0.990       .  S
O1024      H1041   0.990       .  S
O1025      H1045   0.990       .  S
O1025      H1054   0.990       .  S
O1026      C1027   1.278       .  A
C1027      C2683   1.475       .  S
O1028      H1047   0.990       .  S
O1028      H1051   0.990       .  S
O1029      H1043   0.990       .  S
O1029      H1050   0.990       .  S
O1030      C1034   1.286       .  A
O1031      C1034   1.286       .  A
O1032      H1042   0.990       .  S
O1033      H1046   0.990       .  S
C1034      C3512   1.483       .  S
Zr1057     O1058   2.443   1_554  S
Zr1057     O1059   2.445   1_554  S
Zr1057     O1060   2.466       .  S
Zr1057     O1063   2.434       .  S
Zr1057     O1065   2.386       .  S
Zr1057     O1066   2.391       .  S
Zr1057     O1067   2.409       .  S
Zr1057     O1068   2.410       .  S
O1058      H1114   0.990       .  S
O1058      H1122   0.991   1_556  S
O1059      C1079   1.285       .  A
O1060      C1081   1.287       .  A
O1061     Zr1071   2.440       .  S
O1061      C1080   1.286       .  A
O1062     Zr1070   2.411       .  S
O1062      C1081   1.280       .  A
O1063      C1080   1.285       .  A
O1064     Zr1072   2.410   1_556  S
O1064      C1079   1.280       .  A
O1065     Zr1070   2.402       .  S
O1065     Zr1072   2.386       .  S
O1066     Zr1071   2.393       .  S
O1066     Zr1072   2.372       .  S
O1066      H1101   0.967   1_554  S
O1067     Zr1070   2.402       .  S
O1067     Zr1087   2.372       .  S
O1067      H1104   0.965       .  S
O1068     Zr1071   2.393       .  S
O1068     Zr1087   2.383       .  S
Zr1069     O1094   2.441       .  S
Zr1069     O1088   2.464       .  S
Zr1069     O1096   2.445       .  S
Zr1069     O1084   2.458       .  S
Zr1069     O1075   2.411       .  S
Zr1069     O1076   2.416       .  S
Zr1069     O1077   2.379       .  S
Zr1069     O1078   2.398       .  S
Zr1070     O1089   2.436       .  S
Zr1070     O1082   2.434       .  S
Zr1070     O1083   2.430       .  S
Zr1070     O1076   2.391       .  S
Zr1070     O1077   2.389       .  S
Zr1071     O1073   2.436       .  S
Zr1071     O1095   2.436       .  S
Zr1071     O1097   2.436       .  S
Zr1071     O1075   2.394       .  S
Zr1071     O1078   2.395       .  S
Zr1072     O1098   2.436   1_554  S
Zr1072     O1099   2.439       .  S
Zr1072     O1074   2.437   1_554  S
Zr1072     O1075   2.392       .  S
Zr1072     O1076   2.381       .  S
O1073      H1110   0.990       .  S
O1074      H1105   0.990       .  S
O1074      H1119   0.990       .  S
O1076      H1102   0.964       .  S
O1077     Zr1087   2.390       .  S
O1078     Zr1087   2.381       .  S
O1078      H1103   0.966       .  S
C1079      C2584   1.475       .  S
C1080      C2616   1.477   1_554  S
C1081      C2763   1.466       .  S
O1082      H1118   0.989       .  S
O1083      C1085   1.283       .  A
O1084      C1085   1.287       .  A
C1085      C2571   1.474       .  S
O1086     Zr1087   2.441       .  S
O1086      H1115   0.990       .  S
Zr1087     O1090   2.439       .  S
Zr1087     O1091   2.440       .  S
Zr1087     O1092   2.378       .  S
O1088      C1093   1.288       .  A
O1089      H1106   0.990       .  S
O1089      H1121   0.990       .  S
O1090      H1107   0.990       .  S
O1091      H1111   0.990       .  S
O1091      H1120   0.990       .  S
O1092      C1093   1.274       .  A
C1093      C2600   1.469       .  S
O1094      H1113   0.991       .  S
O1094      H1117   0.990       .  S
O1095      H1109   0.990       .  S
O1095      H1116   0.990       .  S
O1096      C1100   1.286       .  A
O1097      C1100   1.285       .  A
O1098      H1108   0.990   1_556  S
O1099      H1112   0.990       .  S
C1100      C2552   1.478       .  S
Zr1123     O1124   2.441       .  S
Zr1123     O1125   2.458       .  S
Zr1123     O1126   2.469       .  S
Zr1123     O1129   2.437       .  S
Zr1123     O1131   2.384       .  S
Zr1123     O1132   2.385       .  S
Zr1123     O1133   2.409       .  S
Zr1123     O1134   2.413       .  S
O1124      H1180   0.990       .  S
O1124      H1188   0.990       .  S
O1125      C1145   1.288       .  A
O1126      C1147   1.289       .  A
O1127     Zr1137   2.440       .  S
O1127      C1146   1.286       .  A
O1128     Zr1136   2.412       .  S
O1128      C1147   1.280       .  A
O1129      C1146   1.285       .  A
O1130     Zr1138   2.390       .  S
O1130      C1145   1.275       .  A
O1131     Zr1136   2.392       .  S
O1131     Zr1138   2.384       .  S
O1132     Zr1137   2.391       .  S
O1132     Zr1138   2.371       .  S
O1132      H1167   0.966       .  S
O1133     Zr1136   2.397       .  S
O1133     Zr1153   2.377       .  S
O1133      H1170   0.964       .  S
O1134     Zr1137   2.390       .  S
O1134     Zr1153   2.395       .  S
Zr1135     O1160   2.442       .  S
Zr1135     O1154   2.455       .  S
Zr1135     O1162   2.456       .  S
Zr1135     O1150   2.469       .  S
Zr1135     O1141   2.406       .  S
Zr1135     O1142   2.415       .  S
Zr1135     O1143   2.377       .  S
Zr1135     O1144   2.391       .  S
Zr1136     O1155   2.436       .  S
Zr1136     O1148   2.436       .  S
Zr1136     O1149   2.413       .  S
Zr1136     O1142   2.400       .  S
Zr1136     O1143   2.392       .  S
Zr1137     O1139   2.434       .  S
Zr1137     O1161   2.439       .  S
Zr1137     O1163   2.427       .  S
Zr1137     O1141   2.394       .  S
Zr1137     O1144   2.399       .  S
Zr1138     O1164   2.437       .  S
Zr1138     O1165   2.436       .  S
Zr1138     O1140   2.437       .  S
Zr1138     O1141   2.387       .  S
Zr1138     O1142   2.380       .  S
O1139      H1176   0.990       .  S
O1140      H1171   0.990       .  S
O1140      H1185   0.990       .  S
O1142      H1168   0.964       .  S
O1143     Zr1153   2.382       .  S
O1144     Zr1153   2.377       .  S
O1144      H1169   0.966       .  S
C1145      C2603   1.470       .  S
C1146      C2539   1.481       .  S
C1147      C2699   1.472       .  S
O1148      H1184   0.990       .  S
O1149      C1151   1.281       .  A
O1150      C1151   1.290       .  A
C1151      C2520   1.476       .  S
O1152     Zr1153   2.438       .  S
O1152      H1181   0.990       .  S
Zr1153     O1156   2.438       .  S
Zr1153     O1157   2.439       .  S
Zr1153     O1158   2.404       .  S
O1154      C1159   1.286       .  A
O1155      H1172   0.990       .  S
O1155      H1187   0.990       .  S
O1156      H1173   0.990       .  S
O1157      H1177   0.990       .  S
O1157      H1186   0.990       .  S
O1158      C1159   1.278       .  A
C1159      C2587   1.477       .  S
O1160      H1179   0.990       .  S
O1160      H1183   0.990       .  S
O1161      H1175   0.990       .  S
O1161      H1182   0.990       .  S
O1162      C1166   1.289       .  A
O1163      C1166   1.284       .  A
O1164      H1174   0.990       .  S
O1165      H1178   0.990       .  S
C1166      C2504   1.478       .  S
Zr1189     O1190   2.442       .  S
Zr1189     O1191   2.469       .  S
Zr1189     O1192   2.473       .  S
Zr1189     O1195   2.435       .  S
Zr1189     O1197   2.384       .  S
Zr1189     O1198   2.389       .  S
Zr1189     O1199   2.416       .  S
Zr1189     O1200   2.419       .  S
O1190      H1246   0.990       .  S
O1190      H1254   0.990       .  S
O1191      C1211   1.289       .  A
O1192      C1213   1.289       .  A
O1193     Zr1203   2.459       .  S
O1193      C1212   1.289       .  A
O1194     Zr1202   2.405       .  S
O1194      C1213   1.280       .  A
O1195      C1212   1.284       .  A
O1196     Zr1204   2.392       .  S
O1196      C1211   1.277       .  A
O1197     Zr1202   2.397       .  S
O1197     Zr1204   2.386       .  S
O1198     Zr1203   2.395       .  S
O1198     Zr1204   2.379       .  S
O1198      H1233   0.965       .  S
O1199     Zr1202   2.399       .  S
O1199     Zr1219   2.382       .  S
O1199      H1236   0.964       .  S
O1200     Zr1203   2.392       .  S
O1200     Zr1219   2.399       .  S
Zr1201     O1226   2.442       .  S
Zr1201     O1220   2.447       .  S
Zr1201     O1228   2.435       .  S
Zr1201     O1216   2.467       .  S
Zr1201     O1207   2.407       .  S
Zr1201     O1208   2.406       .  S
Zr1201     O1209   2.370       .  S
Zr1201     O1210   2.398       .  S
Zr1202     O1221   2.437       .  S
Zr1202     O1214   2.435       .  S
Zr1202     O1215   2.422       .  S
Zr1202     O1208   2.388       .  S
Zr1202     O1209   2.388       .  S
Zr1203     O1205   2.435       .  S
Zr1203     O1227   2.440       .  S
Zr1203     O1229   2.435       .  S
Zr1203     O1207   2.400       .  S
Zr1203     O1210   2.404       .  S
Zr1204     O1230   2.436       .  S
Zr1204     O1231   2.437       .  S
Zr1204     O1206   2.438       .  S
Zr1204     O1207   2.385       .  S
Zr1204     O1208   2.379       .  S
O1205      H1242   0.990       .  S
O1206      H1237   0.990       .  S
O1206      H1251   0.990       .  S
O1208      H1234   0.964       .  S
O1209     Zr1219   2.383       .  S
O1210     Zr1219   2.379       .  S
O1210      H1235   0.966       .  S
C1211      C2472   1.478       .  S
C1212      C2536   1.483       .  S
C1213      C2651   1.477       .  S
O1214      H1250   0.990       .  S
O1215      C1217   1.281       .  A
O1216      C1217   1.289       .  A
C1217      C2923   1.476       .  S
O1218     Zr1219   2.440       .  S
O1218      H1247   0.990       .  S
Zr1219     O1222   2.439       .  S
Zr1219     O1223   2.442       .  S
Zr1219     O1224   2.406       .  S
O1220      C1225   1.285       .  A
O1221      H1238   0.990       .  S
O1221      H1253   0.990       .  S
O1222      H1239   0.990       .  S
O1223      H1243   0.990       .  S
O1223      H1252   0.990       .  S
O1224      C1225   1.278       .  A
C1225      C2488   1.474       .  S
O1226      H1245   0.991       .  S
O1226      H1249   0.991       .  S
O1227      H1241   0.990       .  S
O1227      H1248   0.990       .  S
O1228      C1232   1.285       .  A
O1229      C1232   1.286       .  A
O1230      H1240   0.990       .  S
O1231      H1244   0.990       .  S
C1232      C3432   1.474       .  S
Zr1255     O1256   2.442       .  S
Zr1255     O1257   2.456       .  S
Zr1255     O1258   2.479       .  S
Zr1255     O1261   2.435       .  S
Zr1255     O1263   2.383       .  S
Zr1255     O1264   2.391       .  S
Zr1255     O1265   2.405       .  S
Zr1255     O1266   2.415       .  S
O1256      H1312   0.990       .  S
O1256      H1320   0.991       .  S
O1257      C1277   1.287       .  A
O1258      C1279   1.290       .  A
O1259     Zr1269   2.445       .  S
O1259      C1278   1.287       .  A
O1260     Zr1268   2.403       .  S
O1260      C1279   1.280       .  A
O1261      C1278   1.285       .  A
O1262     Zr1270   2.405       .  S
O1262      C1277   1.279       .  A
O1263     Zr1268   2.398       .  S
O1263     Zr1270   2.386       .  S
O1264     Zr1269   2.395       .  S
O1264     Zr1270   2.377       .  S
O1264      H1299   0.966       .  S
O1265     Zr1268   2.400       .  S
O1265     Zr1285   2.384       .  S
O1265      H1302   0.964       .  S
O1266     Zr1269   2.394       .  S
O1266     Zr1285   2.394       .  S
Zr1267     O1292   2.441       .  S
Zr1267     O1286   2.454       .  S
Zr1267     O1294   2.424       .  S
Zr1267     O1282   2.451       .  S
Zr1267     O1273   2.409       .  S
Zr1267     O1274   2.408       .  S
Zr1267     O1275   2.370       .  S
Zr1267     O1276   2.394       .  S
Zr1268     O1287   2.436       .  S
Zr1268     O1280   2.435       .  S
Zr1268     O1281   2.423       .  S
Zr1268     O1274   2.393       .  S
Zr1268     O1275   2.388       .  S
Zr1269     O1271   2.436       .  S
Zr1269     O1293   2.438       .  S
Zr1269     O1295   2.439       .  S
Zr1269     O1273   2.397       .  S
Zr1269     O1276   2.402       .  S
Zr1270     O1296   2.437       .  S
Zr1270     O1297   2.436       .  S
Zr1270     O1272   2.438       .  S
Zr1270     O1273   2.387       .  S
Zr1270     O1274   2.382       .  S
O1271      H1308   0.990       .  S
O1272      H1303   0.990       .  S
O1272      H1317   0.990       .  S
O1274      H1300   0.964       .  S
O1275     Zr1285   2.380       .  S
O1276     Zr1285   2.372       .  S
O1276      H1301   0.966       .  S
C1277      C2491   1.476       .  S
C1278      C2619   1.482       .  S
C1279      C2635   1.479       .  S
O1280      H1316   0.990       .  S
O1281      C1283   1.283       .  A
O1282      C1283   1.286       .  A
C1283      C2872   1.472       .  S
O1284     Zr1285   2.436       .  S
O1284      H1313   0.990       .  S
Zr1285     O1288   2.435       .  S
Zr1285     O1289   2.439       .  S
Zr1285     O1290   2.403       .  S
O1286      C1291   1.286       .  A
O1287      H1304   0.990       .  S
O1287      H1319   0.990       .  S
O1288      H1305   0.990       .  S
O1289      H1309   0.990       .  S
O1289      H1318   0.990       .  S
O1290      C1291   1.278       .  A
C1291      C2475   1.478       .  S
O1292      H1311   0.991       .  S
O1292      H1315   0.990       .  S
O1293      H1307   0.990       .  S
O1293      H1314   0.990       .  S
O1294      C1298   1.282       .  A
O1295      C1298   1.285       .  A
O1296      H1306   0.990       .  S
O1297      H1310   0.990       .  S
C1298      C3387   1.471       .  S
Zr1321     O1322   2.443       .  S
Zr1321     O1323   2.468       .  S
Zr1321     O1324   2.450       .  S
Zr1321     O1327   2.457       .  S
Zr1321     O1329   2.391       .  S
Zr1321     O1330   2.386       .  S
Zr1321     O1331   2.421       .  S
Zr1321     O1332   2.402       .  S
O1322      H1378   0.990       .  S
O1322      H1386   0.991       .  S
O1323      C1343   1.289       .  A
O1324      C1345   1.285       .  A
O1325     Zr1335   2.423       .  S
O1325      C1344   1.283       .  A
O1326     Zr1334   2.429       .  S
O1326      C1345   1.283       .  A
O1327      C1344   1.288       .  A
O1328     Zr1336   2.395       .  S
O1328      C1343   1.276       .  A
O1329     Zr1334   2.398       .  S
O1329     Zr1336   2.381       .  S
O1330     Zr1335   2.387       .  S
O1330     Zr1336   2.387       .  S
O1330      H1365   0.966       .  S
O1331     Zr1334   2.405       .  S
O1331     Zr1351   2.394       .  S
O1331      H1368   0.966       .  S
O1332     Zr1335   2.378       .  S
O1332     Zr1351   2.386       .  S
Zr1333     O1358   2.441       .  S
Zr1333     O1352   2.449       .  S
Zr1333     O1360   2.457       .  S
Zr1333     O1348   2.444       .  S
Zr1333     O1339   2.396       .  S
Zr1333     O1340   2.413       .  S
Zr1333     O1341   2.380       .  S
Zr1333     O1342   2.389       .  S
Zr1334     O1353   2.436       .  S
Zr1334     O1346   2.436       .  S
Zr1334     O1347   2.438       .  S
Zr1334     O1340   2.398       .  S
Zr1334     O1341   2.392       .  S
Zr1335     O1337   2.436       .  S
Zr1335     O1359   2.437       .  S
Zr1335     O1361   2.397       .  S
Zr1335     O1339   2.389       .  S
Zr1335     O1342   2.395       .  S
Zr1336     O1362   2.435       .  S
Zr1336     O1363   2.435       .  S
Zr1336     O1338   2.437       .  S
Zr1336     O1339   2.380       .  S
Zr1336     O1340   2.386       .  S
O1337      H1374   0.990       .  S
O1338      H1369   0.990       .  S
O1338      H1383   0.990       .  S
O1340      H1366   0.966       .  S
O1341     Zr1351   2.377       .  S
O1342     Zr1351   2.378       .  S
O1342      H1367   0.966       .  S
C1343      C2427   1.476       .  S
C1344      C2555   1.477       .  S
C1345      C2408   1.472       .  S
O1346      H1382   0.990       .  S
O1347      C1349   1.286       .  A
O1348      C1349   1.286       .  A
C1349      C2459   1.478       .  S
O1350     Zr1351   2.438       .  S
O1350      H1379   0.990       .  S
Zr1351     O1354   2.438       .  S
Zr1351     O1355   2.439       .  S
Zr1351     O1356   2.408       .  S
O1352      C1357   1.285       .  A
O1353      H1370   0.990       .  S
O1353      H1385   0.990       .  S
O1354      H1371   0.990       .  S
O1355      H1375   0.990       .  S
O1355      H1384   0.990       .  S
O1356      C1357   1.279       .  A
C1357      C2443   1.476       .  S
O1358      H1377   0.990       .  S
O1358      H1381   0.990       .  S
O1359      H1373   0.990       .  S
O1359      H1380   0.990       .  S
O1360      C1364   1.287       .  A
O1361      C1364   1.278       .  A
O1362      H1372   0.990       .  S
O1363      H1376   0.990       .  S
C1364      C3419   1.463       .  S
Zr1387     O1388   2.442       .  S
Zr1387     O1389   2.446       .  S
Zr1387     O1390   2.445       .  S
Zr1387     O1393   2.447       .  S
Zr1387     O1395   2.386       .  S
Zr1387     O1396   2.385       .  S
Zr1387     O1397   2.413       .  S
Zr1387     O1398   2.394       .  S
O1388      H1444   0.990       .  S
O1388      H1452   0.991       .  S
O1389      C1409   1.285       .  A
O1390      C1411   1.284       .  A
O1391     Zr1401   2.436       .  S
O1391      C1410   1.285       .  A
O1392     Zr1400   2.429       .  S
O1392      C1411   1.283       .  A
O1393      C1410   1.286       .  A
O1394     Zr1402   2.419       .  S
O1394      C1409   1.281       .  A
O1395     Zr1400   2.402       .  S
O1395     Zr1402   2.379       .  S
O1396     Zr1401   2.390       .  S
O1396     Zr1402   2.385       .  S
O1396      H1431   0.965       .  S
O1397     Zr1400   2.406       .  S
O1397     Zr1417   2.392       .  S
O1397      H1434   0.965       .  S
O1398     Zr1401   2.379       .  S
O1398     Zr1417   2.379       .  S
Zr1399     O1424   2.442       .  S
Zr1399     O1418   2.460       .  S
Zr1399     O1426   2.454       .  S
Zr1399     O1414   2.440       .  S
Zr1399     O1405   2.401       .  S
Zr1399     O1406   2.421       .  S
Zr1399     O1407   2.374       .  S
Zr1399     O1408   2.387       .  S
Zr1400     O1419   2.437       .  S
Zr1400     O1412   2.434       .  S
Zr1400     O1413   2.439       .  S
Zr1400     O1406   2.401       .  S
Zr1400     O1407   2.397       .  S
Zr1401     O1403   2.436       .  S
Zr1401     O1425   2.441       .  S
Zr1401     O1427   2.417       .  S
Zr1401     O1405   2.385       .  S
Zr1401     O1408   2.402       .  S
Zr1402     O1428   2.436       .  S
Zr1402     O1429   2.436       .  S
Zr1402     O1404   2.437       .  S
Zr1402     O1405   2.385       .  S
Zr1402     O1406   2.401       .  S
O1403      H1440   0.990       .  S
O1404      H1435   0.990       .  S
O1404      H1449   0.990       .  S
O1406      H1432   0.965       .  S
O1407     Zr1417   2.379       .  S
O1408     Zr1417   2.387       .  S
O1408      H1433   0.966       .  S
C1409      C2440   1.477       .  S
C1410      C2507   1.478       .  S
C1411      C2376   1.472       .  S
O1412      H1448   0.990       .  S
O1413      C1415   1.285       .  A
O1414      C1415   1.285       .  A
C1415      C2392   1.479       .  S
O1416     Zr1417   2.438       .  S
O1416      H1445   0.990       .  S
Zr1417     O1420   2.436       .  S
Zr1417     O1421   2.441       .  S
Zr1417     O1422   2.399       .  S
O1418      C1423   1.287       .  A
O1419      H1436   0.990       .  S
O1419      H1451   0.990       .  S
O1420      H1437   0.990       .  S
O1421      H1441   0.990       .  S
O1421      H1450   0.990       .  S
O1422      C1423   1.277       .  A
C1423      C2424   1.476       .  S
O1424      H1443   0.990       .  S
O1424      H1447   0.990       .  S
O1425      H1439   0.990       .  S
O1425      H1446   0.990       .  S
O1426      C1430   1.287       .  A
O1427      C1430   1.283       .  A
O1428      H1438   0.990       .  S
O1429      H1442   0.990       .  S
C1430      C3371   1.468       .  S
Zr1453     O1454   2.443       .  S
Zr1453     O1455   2.438       .  S
Zr1453     O1456   2.434       .  S
Zr1453     O1459   2.450       .  S
Zr1453     O1461   2.391       .  S
Zr1453     O1462   2.383       .  S
Zr1453     O1463   2.413       .  S
Zr1453     O1464   2.395       .  S
O1454      H1510   0.990       .  S
O1454      H1518   0.990       .  S
O1455      C1475   1.283       .  A
O1456      C1477   1.283       .  A
O1457     Zr1467   2.414       .  S
O1457      C1476   1.281       .  A
O1458     Zr1466   2.446       .  S
O1458      C1477   1.287       .  A
O1459      C1476   1.286       .  A
O1460     Zr1468   2.402       .  S
O1460      C1475   1.278       .  A
O1461     Zr1466   2.403       .  S
O1461     Zr1468   2.379       .  S
O1462     Zr1467   2.383       .  S
O1462     Zr1468   2.383       .  S
O1462      H1497   0.966       .  S
O1463     Zr1466   2.409       .  S
O1463     Zr1483   2.386       .  S
O1463      H1500   0.965       .  S
O1464     Zr1467   2.385       .  S
O1464     Zr1483   2.384       .  S
Zr1465     O1490   2.442       .  S
Zr1465     O1484   2.450       .  S
Zr1465     O1492   2.455       .  S
Zr1465     O1480   2.424       .  S
Zr1465     O1471   2.396       .  S
Zr1465     O1472   2.419       .  S
Zr1465     O1473   2.384       .  S
Zr1465     O1474   2.381       .  S
Zr1466     O1485   2.436       .  S
Zr1466     O1478   2.436       .  S
Zr1466     O1479   2.459       .  S
Zr1466     O1472   2.404       .  S
Zr1466     O1473   2.395       .  S
Zr1467     O1469   2.435       .  S
Zr1467     O1491   2.438       .  S
Zr1467     O1493   2.405       .  S
Zr1467     O1471   2.388       .  S
Zr1467     O1474   2.391       .  S
Zr1468     O1494   2.437       .  S
Zr1468     O1495   2.435       .  S
Zr1468     O1470   2.438       .  S
Zr1468     O1471   2.389       .  S
Zr1468     O1472   2.391       .  S
O1469      H1506   0.990       .  S
O1470      H1501   0.990       .  S
O1470      H1515   0.990       .  S
O1472      H1498   0.965       .  S
O1473     Zr1483   2.380       .  S
O1474     Zr1483   2.380       .  S
O1474      H1499   0.966       .  S
C1475      C2344   1.467       .  S
C1476      C2715   1.473       .  S
C1477      C3227   1.476       .  S
O1478      H1514   0.990       .  S
O1479      C1481   1.289       .  A
O1480      C1481   1.281       .  A
C1481      C2456   1.477       .  S
O1482     Zr1483   2.438       .  S
O1482      H1511   0.990       .  S
Zr1483     O1486   2.438       .  S
Zr1483     O1487   2.439       .  S
Zr1483     O1488   2.400       .  S
O1484      C1489   1.285       .  A
O1485      H1502   0.990       .  S
O1485      H1517   0.990       .  S
O1486      H1503   0.990       .  S
O1487      H1507   0.990       .  S
O1487      H1516   0.990       .  S
O1488      C1489   1.278       .  A
C1489      C2360   1.474       .  S
O1490      H1509   0.990       .  S
O1490      H1513   0.990       .  S
O1491      H1505   0.990       .  S
O1491      H1512   0.990       .  S
O1492      C1496   1.286       .  A
O1493      C1496   1.278       .  A
O1494      H1504   0.990       .  S
O1495      H1508   0.990       .  S
C1496      C3563   1.469       .  S
Zr1519     O1520   2.442   1_556  S
Zr1519     O1521   2.445   1_556  S
Zr1519     O1522   2.445       .  S
Zr1519     O1525   2.449       .  S
Zr1519     O1527   2.388       .  S
Zr1519     O1528   2.383       .  S
Zr1519     O1529   2.412       .  S
Zr1519     O1530   2.397       .  S
O1520      H1576   0.990       .  S
O1520      H1584   0.991       .  S
O1521      C1541   1.285       .  A
O1522      C1543   1.285       .  A
O1523     Zr1533   2.413       .  S
O1523      C1542   1.281       .  A
O1524     Zr1532   2.439       .  S
O1524      C1543   1.286       .  A
O1525      C1542   1.286       .  A
O1526     Zr1534   2.411   1_554  S
O1526      C1541   1.279       .  A
O1527     Zr1532   2.404       .  S
O1527     Zr1534   2.384       .  S
O1528     Zr1533   2.387       .  S
O1528     Zr1534   2.382       .  S
O1528      H1563   0.966   1_556  S
O1529     Zr1532   2.405       .  S
O1529     Zr1549   2.383       .  S
O1529      H1566   0.965       .  S
O1530     Zr1533   2.384       .  S
O1530     Zr1549   2.384       .  S
Zr1531     O1556   2.443       .  S
Zr1531     O1550   2.448       .  S
Zr1531     O1558   2.456       .  S
Zr1531     O1546   2.428       .  S
Zr1531     O1537   2.392       .  S
Zr1531     O1538   2.419       .  S
Zr1531     O1539   2.383       .  S
Zr1531     O1540   2.386       .  S
Zr1532     O1551   2.435       .  S
Zr1532     O1544   2.434       .  S
Zr1532     O1545   2.445       .  S
Zr1532     O1538   2.402       .  S
Zr1532     O1539   2.394       .  S
Zr1533     O1535   2.435       .  S
Zr1533     O1557   2.437       .  S
Zr1533     O1559   2.406       .  S
Zr1533     O1537   2.385       .  S
Zr1533     O1540   2.389       .  S
Zr1534     O1560   2.436   1_556  S
Zr1534     O1561   2.439       .  S
Zr1534     O1536   2.437   1_556  S
Zr1534     O1537   2.385       .  S
Zr1534     O1538   2.396       .  S
O1535      H1572   0.990       .  S
O1536      H1567   0.990       .  S
O1536      H1581   0.990       .  S
O1538      H1564   0.964       .  S
O1539     Zr1549   2.379       .  S
O1540     Zr1549   2.384       .  S
O1540      H1565   0.966       .  S
C1541      C2363   1.473       .  S
C1542      C2779   1.471       .  S
C1543      C3291   1.477       .  S
O1544      H1580   0.990       .  S
O1545      C1547   1.286       .  A
O1546      C1547   1.282       .  A
C1547      C2395   1.471       .  S
O1548     Zr1549   2.438       .  S
O1548      H1577   0.991       .  S
Zr1549     O1552   2.437       .  S
Zr1549     O1553   2.439       .  S
Zr1549     O1554   2.395       .  S
O1550      C1555   1.285       .  A
O1551      H1568   0.990       .  S
O1551      H1583   0.990       .  S
O1552      H1569   0.990       .  S
O1553      H1573   0.990       .  S
O1553      H1582   0.989       .  S
O1554      C1555   1.277       .  A
C1555      C2347   1.470       .  S
O1556      H1575   0.991       .  S
O1556      H1579   0.990       .  S
O1557      H1571   0.990       .  S
O1557      H1578   0.990       .  S
O1558      C1562   1.286       .  A
O1559      C1562   1.279       .  A
O1560      H1570   0.990       .  S
O1561      H1574   0.990       .  S
C1562      C3499   1.463       .  S
Zr1585     O1586   2.443       .  S
Zr1585     O1587   2.456       .  S
Zr1585     O1588   2.449       .  S
Zr1585     O1591   2.447       .  S
Zr1585     O1593   2.386       .  S
Zr1585     O1594   2.379       .  S
Zr1585     O1595   2.417       .  S
Zr1585     O1596   2.402       .  S
O1586      H1642   0.990       .  S
O1586      H1650   0.990       .  S
O1587      C1607   1.287       .  A
O1588      C1609   1.286       .  A
O1589     Zr1599   2.422       .  S
O1589      C1608   1.282       .  A
O1590     Zr1598   2.419       .  S
O1590      C1609   1.282       .  A
O1591      C1608   1.286       .  A
O1592     Zr1600   2.400       .  S
O1592      C1607   1.278       .  A
O1593     Zr1598   2.399       .  S
O1593     Zr1600   2.379       .  S
O1594     Zr1599   2.387       .  S
O1594     Zr1600   2.383       .  S
O1594      H1629   0.965       .  S
O1595     Zr1598   2.403       .  S
O1595     Zr1615   2.391       .  S
O1595      H1632   0.965       .  S
O1596     Zr1599   2.386       .  S
O1596     Zr1615   2.389       .  S
Zr1597     O1622   2.442       .  S
Zr1597     O1616   2.456       .  S
Zr1597     O1624   2.472       .  S
Zr1597     O1612   2.441       .  S
Zr1597     O1603   2.392       .  S
Zr1597     O1604   2.420       .  S
Zr1597     O1605   2.383       .  S
Zr1597     O1606   2.390       .  S
Zr1598     O1617   2.438       .  S
Zr1598     O1610   2.434       .  S
Zr1598     O1611   2.419       .  S
Zr1598     O1604   2.401       .  S
Zr1598     O1605   2.394       .  S
Zr1599     O1601   2.435       .  S
Zr1599     O1623   2.442       .  S
Zr1599     O1625   2.412       .  S
Zr1599     O1603   2.382       .  S
Zr1599     O1606   2.394       .  S
Zr1600     O1626   2.435       .  S
Zr1600     O1627   2.434       .  S
Zr1600     O1602   2.436       .  S
Zr1600     O1603   2.380       .  S
Zr1600     O1604   2.394       .  S
O1601      H1638   0.990       .  S
O1602      H1633   0.990       .  S
O1602      H1647   0.990       .  S
O1604      H1630   0.966       .  S
O1605     Zr1615   2.376       .  S
O1606     Zr1615   2.387       .  S
O1606      H1631   0.967       .  S
C1607      C2296   1.475       .  S
C1608      C3240   1.471       .  S
C1609      C2731   1.471       .  S
O1610      H1646   0.990       .  S
O1611      C1613   1.281       .  A
O1612      C1613   1.285       .  A
C1613      C2328   1.470       .  S
O1614     Zr1615   2.439       .  S
O1614      H1643   0.991       .  S
Zr1615     O1618   2.437       .  S
Zr1615     O1619   2.439       .  S
Zr1615     O1620   2.405       .  S
O1616      C1621   1.286       .  A
O1617      H1634   0.990       .  S
O1617      H1649   0.990       .  S
O1618      H1635   0.990       .  S
O1619      H1639   0.990       .  S
O1619      H1648   0.990       .  S
O1620      C1621   1.279       .  A
C1621      C2312   1.479       .  S
O1622      H1641   0.991       .  S
O1622      H1645   0.991       .  S
O1623      H1637   0.990       .  S
O1623      H1644   0.990       .  S
O1624      C1628   1.290       .  A
O1625      C1628   1.283       .  A
O1626      H1636   0.990       .  S
O1627      H1640   0.990       .  S
C1628      C3035   1.483       .  S
Zr1651     O1652   2.443   1_556  S
Zr1651     O1653   2.454   1_556  S
Zr1651     O1654   2.454       .  S
Zr1651     O1657   2.447       .  S
Zr1651     O1659   2.386       .  S
Zr1651     O1660   2.384       .  S
Zr1651     O1661   2.417       .  S
Zr1651     O1662   2.407       .  S
O1652      H1708   0.991       .  S
O1652      H1716   0.990       .  S
O1653      C1673   1.286       .  A
O1654      C1675   1.286       .  A
O1655     Zr1665   2.417       .  S
O1655      C1674   1.280   1_556  A
O1656     Zr1664   2.440       .  S
O1656      C1675   1.286       .  A
O1657      C1674   1.287   1_556  A
O1658     Zr1666   2.412   1_554  S
O1658      C1673   1.280       .  A
O1659     Zr1664   2.402       .  S
O1659     Zr1666   2.381       .  S
O1660     Zr1665   2.387       .  S
O1660     Zr1666   2.379       .  S
O1660      H1695   0.965   1_556  S
O1661     Zr1664   2.406       .  S
O1661     Zr1681   2.391       .  S
O1661      H1698   0.964       .  S
O1662     Zr1665   2.385       .  S
O1662     Zr1681   2.388       .  S
Zr1663     O1688   2.442       .  S
Zr1663     O1682   2.448       .  S
Zr1663     O1690   2.461       .  S
Zr1663     O1678   2.438       .  S
Zr1663     O1669   2.397       .  S
Zr1663     O1670   2.415       .  S
Zr1663     O1671   2.382       .  S
Zr1663     O1672   2.388       .  S
Zr1664     O1683   2.436       .  S
Zr1664     O1676   2.434       .  S
Zr1664     O1677   2.445       .  S
Zr1664     O1670   2.400       .  S
Zr1664     O1671   2.390       .  S
Zr1665     O1667   2.436       .  S
Zr1665     O1689   2.438       .  S
Zr1665     O1691   2.403       .  S
Zr1665     O1669   2.389       .  S
Zr1665     O1672   2.391       .  S
Zr1666     O1692   2.436   1_556  S
Zr1666     O1693   2.435       .  S
Zr1666     O1668   2.436   1_556  S
Zr1666     O1669   2.391       .  S
Zr1666     O1670   2.391       .  S
O1667      H1704   0.990       .  S
O1668      H1699   0.990       .  S
O1668      H1713   0.990       .  S
O1670      H1696   0.965       .  S
O1671     Zr1681   2.379       .  S
O1672     Zr1681   2.380       .  S
O1672      H1697   0.966       .  S
C1673      C2315   1.478       .  S
C1674      C3307   1.469       .  S
C1675      C2795   1.479       .  S
O1676      H1712   0.990       .  S
O1677      C1679   1.287       .  A
O1678      C1679   1.285       .  A
C1679      C2280   1.479       .  S
O1680     Zr1681   2.440       .  S
O1680      H1709   0.990       .  S
Zr1681     O1684   2.437       .  S
Zr1681     O1685   2.440       .  S
Zr1681     O1686   2.407       .  S
O1682      C1687   1.285       .  A
O1683      H1700   0.990       .  S
O1683      H1715   0.990       .  S
O1684      H1701   0.990       .  S
O1685      H1705   0.990       .  S
O1685      H1714   0.990       .  S
O1686      C1687   1.280       .  A
C1687      C2299   1.475       .  S
O1688      H1707   0.991       .  S
O1688      H1711   0.990       .  S
O1689      H1703   0.990       .  S
O1689      H1710   0.990   1_556  S
O1690      C1694   1.287       .  A
O1691      C1694   1.277       .  A
O1692      H1702   0.990       .  S
O1693      H1706   0.990       .  S
C1694      C2984   1.474       .  S
Zr1717     O1718   2.443       .  S
Zr1717     O1719   2.450       .  S
Zr1717     O1720   2.456       .  S
Zr1717     O1723   2.451       .  S
Zr1717     O1725   2.388       .  S
Zr1717     O1726   2.382       .  S
Zr1717     O1727   2.415       .  S
Zr1717     O1728   2.402       .  S
O1718      H1774   0.990       .  S
O1718      H1782   0.991       .  S
O1719      C1739   1.286       .  A
O1720      C1741   1.287       .  A
O1721     Zr1731   2.410       .  S
O1721      C1740   1.279       .  A
O1722     Zr1730   2.435       .  S
O1722      C1741   1.285       .  A
O1723      C1740   1.287       .  A
O1724     Zr1732   2.407       .  S
O1724      C1739   1.280       .  A
O1725     Zr1730   2.400       .  S
O1725     Zr1732   2.383       .  S
O1726     Zr1731   2.385       .  S
O1726     Zr1732   2.379       .  S
O1726      H1761   0.965       .  S
O1727     Zr1730   2.404       .  S
O1727     Zr1747   2.389       .  S
O1727      H1764   0.965       .  S
O1728     Zr1731   2.385       .  S
O1728     Zr1747   2.387       .  S
Zr1729     O1754   2.441       .  S
Zr1729     O1748   2.446       .  S
Zr1729     O1756   2.474       .  S
Zr1729     O1744   2.432       .  S
Zr1729     O1735   2.388       .  S
Zr1729     O1736   2.418       .  S
Zr1729     O1737   2.385       .  S
Zr1729     O1738   2.386       .  S
Zr1730     O1749   2.439       .  S
Zr1730     O1742   2.435       .  S
Zr1730     O1743   2.436       .  S
Zr1730     O1736   2.401       .  S
Zr1730     O1737   2.395       .  S
Zr1731     O1733   2.435       .  S
Zr1731     O1755   2.439       .  S
Zr1731     O1757   2.402       .  S
Zr1731     O1735   2.383       .  S
Zr1731     O1738   2.388       .  S
Zr1732     O1758   2.435       .  S
Zr1732     O1759   2.436       .  S
Zr1732     O1734   2.438       .  S
Zr1732     O1735   2.385       .  S
Zr1732     O1736   2.389       .  S
O1733      H1770   0.990       .  S
O1734      H1765   0.990       .  S
O1734      H1779   0.990       .  S
O1736      H1762   0.965       .  S
O1737     Zr1747   2.377       .  S
O1738     Zr1747   2.384       .  S
O1738      H1763   0.966       .  S
C1739      C2248   1.474       .  S
C1740      C2232   1.469       .  S
C1741      C2568   1.480       .  S
O1742      H1778   0.990       .  S
O1743      C1745   1.284       .  A
O1744      C1745   1.284       .  A
C1745      C2331   1.470       .  S
O1746     Zr1747   2.435       .  S
O1746      H1775   0.990       .  S
Zr1747     O1750   2.435       .  S
Zr1747     O1751   2.437       .  S
Zr1747     O1752   2.405       .  S
O1748      C1753   1.285       .  A
O1749      H1766   0.990       .  S
O1749      H1781   0.990       .  S
O1750      H1767   0.990       .  S
O1751      H1771   0.990       .  S
O1751      H1780   0.990       .  S
O1752      C1753   1.279       .  A
C1753      C2264   1.475       .  S
O1754      H1773   0.991       .  S
O1754      H1777   0.990       .  S
O1755      H1769   0.990       .  S
O1755      H1776   0.990       .  S
O1756      C1760   1.290       .  A
O1757      C1760   1.280       .  A
O1758      H1768   0.990       .  S
O1759      H1772   0.990       .  S
C1760      C2907   1.483       .  S
Zr1783     O1784   2.443       .  S
Zr1783     O1785   2.463       .  S
Zr1783     O1786   2.440       .  S
Zr1783     O1789   2.459       .  S
Zr1783     O1791   2.388       .  S
Zr1783     O1792   2.381       .  S
Zr1783     O1793   2.421       .  S
Zr1783     O1794   2.397       .  S
O1784      H1840   0.990       .  S
O1784      H1848   0.991       .  S
O1785      C1805   1.288       .  A
O1786      C1807   1.284       .  A
O1787     Zr1797   2.410       .  S
O1787      C1806   1.281       .  A
O1788     Zr1796   2.443       .  S
O1788      C1807   1.286       .  A
O1789      C1806   1.288       .  A
O1790     Zr1798   2.396       .  S
O1790      C1805   1.277       .  A
O1791     Zr1796   2.400       .  S
O1791     Zr1798   2.377       .  S
O1792     Zr1797   2.386       .  S
O1792     Zr1798   2.384       .  S
O1792      H1827   0.966       .  S
O1793     Zr1796   2.409       .  S
O1793     Zr1813   2.387       .  S
O1793      H1830   0.965       .  S
O1794     Zr1797   2.386       .  S
O1794     Zr1813   2.384       .  S
Zr1795     O1820   2.442       .  S
Zr1795     O1814   2.462       .  S
Zr1795     O1822   2.468       .  S
Zr1795     O1810   2.434       .  S
Zr1795     O1801   2.393       .  S
Zr1795     O1802   2.420       .  S
Zr1795     O1803   2.386       .  S
Zr1795     O1804   2.384       .  S
Zr1796     O1815   2.436       .  S
Zr1796     O1808   2.434       .  S
Zr1796     O1809   2.453       .  S
Zr1796     O1802   2.399       .  S
Zr1796     O1803   2.396       .  S
Zr1797     O1799   2.435       .  S
Zr1797     O1821   2.436       .  S
Zr1797     O1823   2.405       .  S
Zr1797     O1801   2.384       .  S
Zr1797     O1804   2.389       .  S
Zr1798     O1824   2.435       .  S
Zr1798     O1825   2.435       .  S
Zr1798     O1800   2.438       .  S
Zr1798     O1801   2.384       .  S
Zr1798     O1802   2.390       .  S
O1799      H1836   0.990       .  S
O1800      H1831   0.990       .  S
O1800      H1845   0.990       .  S
O1802      H1828   0.965       .  S
O1803     Zr1813   2.380       .  S
O1804     Zr1813   2.380       .  S
O1804      H1829   0.966       .  S
C1805      C2267   1.476       .  S
C1806      C2216   1.475       .  S
C1807      C2523   1.474       .  S
O1808      H1844   0.990       .  S
O1809      C1811   1.288       .  A
O1810      C1811   1.283       .  A
C1811      C2283   1.478       .  S
O1812     Zr1813   2.438       .  S
O1812      H1841   0.991       .  S
Zr1813     O1816   2.438       .  S
Zr1813     O1817   2.439       .  S
Zr1813     O1818   2.390       .  S
O1814      C1819   1.288       .  A
O1815      H1832   0.990       .  S
O1815      H1847   0.990       .  S
O1816      H1833   0.990       .  S
O1817      H1837   0.990       .  S
O1817      H1846   0.990       .  S
O1818      C1819   1.276       .  A
C1819      C2251   1.475       .  S
O1820      H1839   0.991       .  S
O1820      H1843   0.990       .  S
O1821      H1835   0.990       .  S
O1821      H1842   0.990       .  S
O1822      C1826   1.288       .  A
O1823      C1826   1.278       .  A
O1824      H1834   0.990       .  S
O1825      H1838   0.990       .  S
C1826      C2859   1.472       .  S
Zr1849     O1850   2.443   1_554  S
Zr1849     O1851   2.464   1_554  S
Zr1849     O1852   2.477       .  S
Zr1849     O1855   2.429       .  S
Zr1849     O1857   2.384       .  S
Zr1849     O1858   2.391       .  S
Zr1849     O1859   2.412       .  S
Zr1849     O1860   2.415       .  S
O1850      H1906   0.990       .  S
O1850      H1914   0.991   1_556  S
O1851      C1871   1.288       .  A
O1852      C1873   1.289       .  A
O1853     Zr1863   2.468       .  S
O1853      C1872   1.290       .  A
O1854     Zr1862   2.402       .  S
O1854      C1873   1.279       .  A
O1855      C1872   1.283       .  A
O1856     Zr1864   2.395   1_556  S
O1856      C1871   1.276       .  A
O1857     Zr1862   2.399       .  S
O1857     Zr1864   2.386       .  S
O1858     Zr1863   2.392       .  S
O1858     Zr1864   2.379       .  S
O1858      H1893   0.966   1_554  S
O1859     Zr1862   2.399       .  S
O1859     Zr1879   2.386       .  S
O1859      H1896   0.964       .  S
O1860     Zr1863   2.393       .  S
O1860     Zr1879   2.394       .  S
Zr1861     O1886   2.442       .  S
Zr1861     O1880   2.454       .  S
Zr1861     O1888   2.433       .  S
Zr1861     O1876   2.471       .  S
Zr1861     O1867   2.407       .  S
Zr1861     O1868   2.409       .  S
Zr1861     O1869   2.369       .  S
Zr1861     O1870   2.399       .  S
Zr1862     O1881   2.437       .  S
Zr1862     O1874   2.435       .  S
Zr1862     O1875   2.415       .  S
Zr1862     O1868   2.390       .  S
Zr1862     O1869   2.389       .  S
Zr1863     O1865   2.435       .  S
Zr1863     O1887   2.439       .  S
Zr1863     O1889   2.446       .  S
Zr1863     O1867   2.395       .  S
Zr1863     O1870   2.409       .  S
Zr1864     O1890   2.435   1_554  S
Zr1864     O1891   2.436       .  S
Zr1864     O1866   2.436   1_554  S
Zr1864     O1867   2.379       .  S
Zr1864     O1868   2.381       .  S
O1865      H1902   0.990       .  S
O1866      H1897   0.990       .  S
O1866      H1911   0.990       .  S
O1868      H1894   0.964       .  S
O1869     Zr1879   2.383       .  S
O1870     Zr1879   2.381       .  S
O1870      H1895   0.965       .  S
C1871      C2168   1.474       .  S
C1872      C2203   1.485   1_554  S
C1873      C3275   1.480       .  S
O1874      H1910   0.990       .  S
O1875      C1877   1.281       .  A
O1876      C1877   1.289       .  A
C1877      C2411   1.480       .  S
O1878     Zr1879   2.438       .  S
O1878      H1907   0.990       .  S
Zr1879     O1882   2.436       .  S
Zr1879     O1883   2.441       .  S
Zr1879     O1884   2.399       .  S
O1880      C1885   1.286       .  A
O1881      H1898   0.990       .  S
O1881      H1913   0.990       .  S
O1882      H1899   0.990       .  S
O1883      H1903   0.990       .  S
O1883      H1912   0.990       .  S
O1884      C1885   1.277       .  A
C1885      C2184   1.475       .  S
O1886      H1905   0.991       .  S
O1886      H1909   0.990       .  S
O1887      H1901   0.990       .  S
O1887      H1908   0.990   1_554  S
O1888      C1892   1.285       .  A
O1889      C1892   1.288       .  A
O1890      H1900   0.990       .  S
O1891      H1904   0.990       .  S
C1892      C2235   1.476       .  S
Zr1915     O1916   2.442       .  S
Zr1915     O1917   2.440       .  S
Zr1915     O1918   2.454       .  S
Zr1915     O1921   2.426       .  S
Zr1915     O1923   2.386       .  S
Zr1915     O1924   2.390       .  S
Zr1915     O1925   2.416       .  S
Zr1915     O1926   2.410       .  S
O1916      H1972   0.990       .  S
O1916      H1980   0.991       .  S
O1917      C1937   1.284       .  A
O1918      C1939   1.283       .  A
O1919     Zr1929   2.437       .  S
O1919      C1938   1.284       .  A
O1920     Zr1928   2.413       .  S
O1920      C1939   1.275       .  A
O1921      C1938   1.284       .  A
O1922     Zr1930   2.414       .  S
O1922      C1937   1.281       .  A
O1923     Zr1928   2.399       .  S
O1923     Zr1930   2.380       .  S
O1924     Zr1929   2.389       .  S
O1924     Zr1930   2.375       .  S
O1924      H1959   0.966       .  S
O1925     Zr1928   2.394       .  S
O1925     Zr1945   2.383       .  S
O1925      H1962   0.965       .  S
O1926     Zr1929   2.389       .  S
O1926     Zr1945   2.393       .  S
Zr1927     O1952   2.441       .  S
Zr1927     O1946   2.455       .  S
Zr1927     O1954   2.449       .  S
Zr1927     O1942   2.460       .  S
Zr1927     O1933   2.407       .  S
Zr1927     O1934   2.414       .  S
Zr1927     O1935   2.379       .  S
Zr1927     O1936   2.392       .  S
Zr1928     O1947   2.434       .  S
Zr1928     O1940   2.436       .  S
Zr1928     O1941   2.416       .  S
Zr1928     O1934   2.398       .  S
Zr1928     O1935   2.391       .  S
Zr1929     O1931   2.434       .  S
Zr1929     O1953   2.438       .  S
Zr1929     O1955   2.418       .  S
Zr1929     O1933   2.396       .  S
Zr1929     O1936   2.393       .  S
Zr1930     O1956   2.436       .  S
Zr1930     O1957   2.435       .  S
Zr1930     O1932   2.436       .  S
Zr1930     O1933   2.388       .  S
Zr1930     O1934   2.389       .  S
O1931      H1968   0.990       .  S
O1932      H1963   0.990       .  S
O1932      H1977   0.990       .  S
O1934      H1960   0.965       .  S
O1935     Zr1945   2.387       .  S
O1936     Zr1945   2.377       .  S
O1936      H1961   0.965       .  S
C1937      C2187   1.474       .  S
C1938      C2155   1.474       .  S
C1939      C3211   1.470       .  S
O1940      H1976   0.990       .  S
O1941      C1943   1.280       .  A
O1942      C1943   1.287       .  A
C1943      C2379   1.473       .  S
O1944     Zr1945   2.439       .  S
O1944      H1973   0.990       .  S
Zr1945     O1948   2.439       .  S
Zr1945     O1949   2.439       .  S
Zr1945     O1950   2.404       .  S
O1946      C1951   1.287       .  A
O1947      H1964   0.990       .  S
O1947      H1979   0.990       .  S
O1948      H1965   0.990       .  S
O1949      H1969   0.990       .  S
O1949      H1978   0.990       .  S
O1950      C1951   1.278       .  A
C1951      C2171   1.475       .  S
O1952      H1971   0.991       .  S
O1952      H1975   0.991       .  S
O1953      H1967   0.990       .  S
O1953      H1974   0.990       .  S
O1954      C1958   1.287       .  A
O1955      C1958   1.282       .  A
O1956      H1966   0.990       .  S
O1957      H1970   0.990       .  S
C1958      C2219   1.472       .  S
Zr1981     O1982   2.443       .  S
Zr1981     O1983   2.440       .  S
Zr1981     O1984   2.455       .  S
Zr1981     O1987   2.421       .  S
Zr1981     O1989   2.384       .  S
Zr1981     O1990   2.387       .  S
Zr1981     O1991   2.404       .  S
Zr1981     O1992   2.406       .  S
O1982      H2038   0.990       .  S
O1982      H2046   0.991       .  S
O1983      C2003   1.284       .  A
O1984      C2005   1.285       .  A
O1985     Zr1995   2.440       .  S
O1985      C2004   1.285       .  A
O1986     Zr1994   2.424       .  S
O1986      C2005   1.283       .  A
O1987      C2004   1.282       .  A
O1988     Zr1996   2.415       .  S
O1988      C2003   1.281       .  A
O1989     Zr1994   2.400       .  S
O1989     Zr1996   2.387       .  S
O1990     Zr1995   2.392       .  S
O1990     Zr1996   2.368       .  S
O1990      H2025   0.966       .  S
O1991     Zr1994   2.395       .  S
O1991     Zr2011   2.374       .  S
O1991      H2028   0.964       .  S
O1992     Zr1995   2.393       .  S
O1992     Zr2011   2.384       .  S
Zr1993     O2018   2.442       .  S
Zr1993     O2012   2.466       .  S
Zr1993     O2020   2.443       .  S
Zr1993     O2008   2.460       .  S
Zr1993     O1999   2.412       .  S
Zr1993     O2000   2.418       .  S
Zr1993     O2001   2.379       .  S
Zr1993     O2002   2.391       .  S
Zr1994     O2013   2.435       .  S
Zr1994     O2006   2.435       .  S
Zr1994     O2007   2.422       .  S
Zr1994     O2000   2.399       .  S
Zr1994     O2001   2.392       .  S
Zr1995     O1997   2.434       .  S
Zr1995     O2019   2.438       .  S
Zr1995     O2021   2.425       .  S
Zr1995     O1999   2.393       .  S
Zr1995     O2002   2.396       .  S
Zr1996     O2022   2.435       .  S
Zr1996     O2023   2.436       .  S
Zr1996     O1998   2.435       .  S
Zr1996     O1999   2.394       .  S
Zr1996     O2000   2.382       .  S
O1997      H2034   0.990       .  S
O1998      H2029   0.990       .  S
O1998      H2043   0.990       .  S
O2000      H2026   0.964       .  S
O2001     Zr2011   2.389       .  S
O2002     Zr2011   2.377       .  S
O2002      H2027   0.966       .  S
C2003      C2120   1.475       .  S
C2004      C2152   1.471       .  S
C2005      C3147   1.471       .  S
O2006      H2042   0.989       .  S
O2007      C2009   1.283       .  A
O2008      C2009   1.287       .  A
C2009      C3451   1.474       .  S
O2010     Zr2011   2.439       .  S
O2010      H2039   0.990       .  S
Zr2011     O2014   2.437       .  S
Zr2011     O2015   2.439       .  S
Zr2011     O2016   2.382       .  S
O2012      C2017   1.288       .  A
O2013      H2030   0.990       .  S
O2013      H2045   0.990       .  S
O2014      H2031   0.989       .  S
O2015      H2035   0.990       .  S
O2015      H2044   0.990       .  S
O2016      C2017   1.274       .  A
C2017      C2139   1.472       .  S
O2018      H2037   0.991       .  S
O2018      H2041   0.990       .  S
O2019      H2033   0.990       .  S
O2019      H2040   0.990       .  S
O2020      C2024   1.286       .  A
O2021      C2024   1.283       .  A
O2022      H2032   0.990       .  S
O2023      H2036   0.990       .  S
C2024      C2936   1.472       .  S
Zr2047     O2048   2.441       .  S
Zr2047     O2049   2.458       .  S
Zr2047     O2050   2.464       .  S
Zr2047     O2053   2.445       .  S
Zr2047     O2055   2.387       .  S
Zr2047     O2056   2.387       .  S
Zr2047     O2057   2.417       .  S
Zr2047     O2058   2.413       .  S
O2048      H2104   0.990       .  S
O2048      H2112   0.990       .  S
O2049      C2069   1.288       .  A
O2050      C2071   1.287       .  A
O2051     Zr2061   2.437       .  S
O2051      C2070   1.286       .  A
O2052     Zr2060   2.405       .  S
O2052      C2071   1.279       .  A
O2053      C2070   1.286       .  A
O2054     Zr2062   2.390       .  S
O2054      C2069   1.275       .  A
O2055     Zr2060   2.393       .  S
O2055     Zr2062   2.383       .  S
O2056     Zr2061   2.386       .  S
O2056     Zr2062   2.377       .  S
O2056      H2091   0.967       .  S
O2057     Zr2060   2.400       .  S
O2057     Zr2077   2.386       .  S
O2057      H2094   0.965       .  S
O2058     Zr2061   2.389       .  S
O2058     Zr2077   2.399       .  S
Zr2059     O2084   2.441       .  S
Zr2059     O2078   2.438       .  S
Zr2059     O2086   2.439       .  S
Zr2059     O2074   2.453       .  S
Zr2059     O2065   2.403       .  S
Zr2059     O2066   2.408       .  S
Zr2059     O2067   2.377       .  S
Zr2059     O2068   2.390       .  S
Zr2060     O2079   2.439       .  S
Zr2060     O2072   2.435       .  S
Zr2060     O2073   2.419       .  S
Zr2060     O2066   2.395       .  S
Zr2060     O2067   2.391       .  S
Zr2061     O2063   2.437       .  S
Zr2061     O2085   2.436       .  S
Zr2061     O2087   2.416       .  S
Zr2061     O2065   2.395       .  S
Zr2061     O2068   2.400       .  S
Zr2062     O2088   2.435       .  S
Zr2062     O2089   2.435       .  S
Zr2062     O2064   2.438       .  S
Zr2062     O2065   2.386       .  S
Zr2062     O2066   2.377       .  S
O2063      H2100   0.990       .  S
O2064      H2095   0.990       .  S
O2064      H2109   0.990       .  S
O2066      H2092   0.965       .  S
O2067     Zr2077   2.380       .  S
O2068     Zr2077   2.374       .  S
O2068      H2093   0.966       .  S
C2069      C2136   1.472       .  S
C2070      C2200   1.485       .  S
C2071      C3115   1.474       .  S
O2072      H2108   0.990       .  S
O2073      C2075   1.281       .  A
O2074      C2075   1.287       .  A
C2075      C3403   1.467       .  S
O2076     Zr2077   2.439       .  S
O2076      H2105   0.990       .  S
Zr2077     O2080   2.439       .  S
Zr2077     O2081   2.440       .  S
Zr2077     O2082   2.424       .  S
O2078      C2083   1.283       .  A
O2079      H2096   0.990       .  S
O2079      H2111   0.990       .  S
O2080      H2097   0.990       .  S
O2081      H2101   0.990       .  S
O2081      H2110   0.990       .  S
O2082      C2083   1.282       .  A
C2083      C2123   1.477       .  S
O2084      H2103   0.990       .  S
O2084      H2107   0.990       .  S
O2085      H2099   0.990       .  S
O2085      H2106   0.990       .  S
O2086      C2090   1.285       .  A
O2087      C2090   1.281       .  A
O2088      H2098   0.990       .  S
O2089      H2102   0.990       .  S
C2090      C2891   1.467       .  S
C2113      S2119   1.709       .  A
C2113      C2118   1.386       .  A
C2113      C2114   1.401       .  A
C2114      C2115   1.403       .  A
C2114      H2125   1.083       .  S
C2115      C2124   1.370       .  A
C2115      C2116   1.386       .  A
C2116      S2122   1.710       .  A
C2116      C2117   1.402       .  A
C2117      C2118   1.404       .  A
C2117      H2126   1.083       .  S
C2118      C2121   1.370       .  A
S2119      C2120   1.724       .  A
C2120      C2121   1.389       .  A
C2121      H2127   1.083       .  S
S2122      C2123   1.725       .  A
C2123      C2124   1.388       .  A
C2124      H2128   1.083       .  S
C2129      S2135   1.700       .  A
C2129      C2134   1.387       .  A
C2129      C2130   1.403       .  A
C2130      C2131   1.401       .  A
C2130      H2141   1.083       .  S
C2131      C2140   1.375       .  A
C2131      C2132   1.387       .  A
C2132      S2138   1.697       .  A
C2132      C2133   1.400       .  A
C2133      C2134   1.399       .  A
C2133      H2142   1.083       .  S
C2134      C2137   1.373       .  A
S2135      C2136   1.728   1_554  A
C2136      C2137   1.385   1_556  A
C2137      H2143   1.083   1_554  S
S2138      C2139   1.726       .  A
C2139      C2140   1.386       .  A
C2140      H2144   1.083       .  S
C2145      S2151   1.700       .  A
C2145      C2150   1.387       .  A
C2145      C2146   1.398       .  A
C2146      C2147   1.399       .  A
C2146      H2157   1.083       .  S
C2147      C2156   1.367       .  A
C2147      C2148   1.386       .  A
C2148      S2154   1.711       .  A
C2148      C2149   1.405       .  A
C2149      C2150   1.405       .  A
C2149      H2158   1.083       .  S
C2150      C2153   1.375       .  A
S2151      C2152   1.722       .  A
C2152      C2153   1.388       .  A
C2153      H2159   1.083       .  S
S2154      C2155   1.725       .  A
C2155      C2156   1.386       .  A
C2156      H2160   1.083       .  S
C2161      S2167   1.703       .  A
C2161      C2166   1.387       .  A
C2161      C2162   1.403       .  A
C2162      C2163   1.402       .  A
C2162      H2173   1.083       .  S
C2163      C2172   1.375       .  A
C2163      C2164   1.387       .  A
C2164      S2170   1.703       .  A
C2164      C2165   1.402       .  A
C2165      C2166   1.401       .  A
C2165      H2174   1.083       .  S
C2166      C2169   1.374       .  A
S2167      C2168   1.727       .  A
C2168      C2169   1.386       .  A
C2169      H2175   1.083       .  S
S2170      C2171   1.725       .  A
C2171      C2172   1.387       .  A
C2172      H2176   1.083       .  S
C2177      S2183   1.708       .  A
C2177      C2182   1.386       .  A
C2177      C2178   1.399       .  A
C2178      C2179   1.401       .  A
C2178      H2189   1.083       .  S
C2179      C2188   1.366       .  A
C2179      C2180   1.386       .  A
C2180      S2186   1.711       .  A
C2180      C2181   1.403       .  A
C2181      C2182   1.405       .  A
C2181      H2190   1.083       .  S
C2182      C2185   1.369       .  A
S2183      C2184   1.721       .  A
C2184      C2185   1.391       .  A
C2185      H2191   1.083       .  S
S2186      C2187   1.725       .  A
C2187      C2188   1.387       .  A
C2188      H2192   1.083       .  S
C2193      S2199   1.710       .  A
C2193      C2198   1.386       .  A
C2193      C2194   1.407       .  A
C2194      C2195   1.406       .  A
C2194      H2205   1.083       .  S
C2195      C2204   1.380       .  A
C2195      C2196   1.386       .  A
C2196      S2202   1.708       .  A
C2196      C2197   1.406       .  A
C2197      C2198   1.405       .  A
C2197      H2206   1.083       .  S
C2198      C2201   1.378       .  A
S2199      C2200   1.726       .  A
C2200      C2201   1.391       .  A
C2201      H2207   1.083       .  S
S2202      C2203   1.728       .  A
C2203      C2204   1.390       .  A
C2204      H2208   1.083       .  S
C2209      S2215   1.714       .  A
C2209      C2214   1.386       .  A
C2209      C2210   1.405       .  A
C2210      C2211   1.406   1_565  A
C2210      H2221   1.083       .  S
C2211      C2220   1.374       .  A
C2211      C2212   1.387       .  A
C2212      S2218   1.704       .  A
C2212      C2213   1.398   1_545  A
C2213      C2214   1.400       .  A
C2213      H2222   1.083       .  S
C2214      C2217   1.366       .  A
S2215      C2216   1.725       .  A
C2216      C2217   1.386       .  A
C2217      H2223   1.083       .  S
S2218      C2219   1.722       .  A
C2219      C2220   1.389       .  A
C2220      H2224   1.083       .  S
C2225      S2231   1.706       .  A
C2225      C2230   1.387       .  A
C2225      C2226   1.404       .  A
C2226      C2227   1.403   1_565  A
C2226      H2237   1.083       .  S
C2227      C2236   1.375       .  A
C2227      C2228   1.387       .  A
C2228      S2234   1.703       .  A
C2228      C2229   1.401   1_545  A
C2229      C2230   1.400       .  A
C2229      H2238   1.083       .  S
C2230      C2233   1.372       .  A
S2231      C2232   1.725       .  A
C2232      C2233   1.384       .  A
C2233      H2239   1.083       .  S
S2234      C2235   1.725       .  A
C2235      C2236   1.388       .  A
C2236      H2240   1.083       .  S
C2241      S2247   1.710   1_556  A
C2241      C2246   1.386       .  A
C2241      C2242   1.400       .  A
C2242      C2243   1.403       .  A
C2242      H2253   1.083       .  S
C2243      C2252   1.365       .  A
C2243      C2244   1.386       .  A
C2244      S2250   1.713       .  A
C2244      C2245   1.401       .  A
C2245      C2246   1.404       .  A
C2245      H2254   1.083       .  S
C2246      C2249   1.367   1_556  A
S2247      C2248   1.723       .  A
C2248      C2249   1.389       .  A
C2249      H2255   1.083       .  S
S2250      C2251   1.722       .  A
C2251      C2252   1.390       .  A
C2252      H2256   1.083       .  S
C2257      S2263   1.711       .  A
C2257      C2262   1.386       .  A
C2257      C2258   1.400       .  A
C2258      C2259   1.403       .  A
C2258      H2269   1.083       .  S
C2259      C2268   1.366       .  A
C2259      C2260   1.386       .  A
C2260      S2266   1.713       .  A
C2260      C2261   1.401       .  A
C2261      C2262   1.404       .  A
C2261      H2270   1.083       .  S
C2262      C2265   1.367       .  A
S2263      C2264   1.723       .  A
C2264      C2265   1.389       .  A
C2265      H2271   1.083       .  S
S2266      C2267   1.723       .  A
C2267      C2268   1.390       .  A
C2268      H2272   1.083       .  S
C2273      S2279   1.712       .  A
C2273      C2278   1.386       .  A
C2273      C2274   1.405       .  A
C2274      C2275   1.405       .  A
C2274      H2285   1.083       .  S
C2275      C2284   1.376       .  A
C2275      C2276   1.387       .  A
C2276      S2282   1.705       .  A
C2276      C2277   1.402       .  A
C2277      C2278   1.402       .  A
C2277      H2286   1.083       .  S
C2278      C2281   1.371       .  A
S2279      C2280   1.725       .  A
C2280      C2281   1.389       .  A
C2281      H2287   1.083       .  S
S2282      C2283   1.726       .  A
C2283      C2284   1.388       .  A
C2284      H2288   1.083       .  S
C2289      S2295   1.711       .  A
C2289      C2294   1.386       .  A
C2289      C2290   1.400       .  A
C2290      C2291   1.403       .  A
C2290      H2301   1.083       .  S
C2291      C2300   1.367       .  A
C2291      C2292   1.386       .  A
C2292      S2298   1.711       .  A
C2292      C2293   1.402       .  A
C2293      C2294   1.404       .  A
C2293      H2302   1.083       .  S
C2294      C2297   1.368       .  A
S2295      C2296   1.722       .  A
C2296      C2297   1.390       .  A
C2297      H2303   1.083       .  S
S2298      C2299   1.724       .  A
C2299      C2300   1.389       .  A
C2300      H2304   1.083       .  S
C2305      S2311   1.714       .  A
C2305      C2310   1.386       .  A
C2305      C2306   1.402       .  A
C2306      C2307   1.405       .  A
C2306      H2317   1.083       .  S
C2307      C2316   1.368       .  A
C2307      C2308   1.386       .  A
C2308      S2314   1.713       .  A
C2308      C2309   1.402       .  A
C2309      C2310   1.405       .  A
C2309      H2318   1.083       .  S
C2310      C2313   1.368       .  A
S2311      C2312   1.724       .  A
C2312      C2313   1.390       .  A
C2313      H2319   1.083       .  S
S2314      C2315   1.725       .  A
C2315      C2316   1.389       .  A
C2316      H2320   1.083       .  S
C2321      S2327   1.711       .  A
C2321      C2326   1.387       .  A
C2321      C2322   1.406       .  A
C2322      C2323   1.407       .  A
C2322      H2333   1.083       .  S
C2323      C2332   1.376       .  A
C2323      C2324   1.388       .  A
C2324      S2330   1.696       .  A
C2324      C2325   1.394       .  A
C2325      C2326   1.395       .  A
C2325      H2334   1.083       .  S
C2326      C2329   1.364       .  A
S2327      C2328   1.727       .  A
C2328      C2329   1.382       .  A
C2329      H2335   1.083       .  S
S2330      C2331   1.720       .  A
C2331      C2332   1.390       .  A
C2332      H2336   1.083       .  S
C2337      S2343   1.710       .  A
C2337      C2342   1.386       .  A
C2337      C2338   1.399       .  A
C2338      C2339   1.403       .  A
C2338      H2349   1.083       .  S
C2339      C2348   1.364       .  A
C2339      C2340   1.387       .  A
C2340      S2346   1.708       .  A
C2340      C2341   1.397       .  A
C2341      C2342   1.400       .  A
C2341      H2350   1.083       .  S
C2342      C2345   1.362       .  A
S2343      C2344   1.722       .  A
C2344      C2345   1.386       .  A
C2345      H2351   1.083       .  S
S2346      C2347   1.721       .  A
C2347      C2348   1.388       .  A
C2348      H2352   1.083       .  S
C2353      S2359   1.711       .  A
C2353      C2358   1.386       .  A
C2353      C2354   1.402       .  A
C2354      C2355   1.404       .  A
C2354      H2365   1.083       .  S
C2355      C2364   1.369       .  A
C2355      C2356   1.387       .  A
C2356      S2362   1.707       .  A
C2356      C2357   1.399       .  A
C2357      C2358   1.401       .  A
C2357      H2366   1.083       .  S
C2358      C2361   1.366       .  A
S2359      C2360   1.724       .  A
C2360      C2361   1.388       .  A
C2361      H2367   1.083       .  S
S2362      C2363   1.722       .  A
C2363      C2364   1.389       .  A
C2364      H2368   1.083       .  S
C2369      S2375   1.706       .  A
C2369      C2374   1.387       .  A
C2369      C2370   1.402       .  A
C2370      C2371   1.403       .  A
C2370      H2381   1.083       .  S
C2371      C2380   1.373       .  A
C2371      C2372   1.387       .  A
C2372      S2378   1.706       .  A
C2372      C2373   1.402       .  A
C2373      C2374   1.402       .  A
C2373      H2382   1.083       .  S
C2374      C2377   1.372       .  A
S2375      C2376   1.724       .  A
C2376      C2377   1.387       .  A
C2377      H2383   1.083       .  S
S2378      C2379   1.725       .  A
C2379      C2380   1.386       .  A
C2380      H2384   1.083       .  S
C2385      S2391   1.713       .  A
C2385      C2390   1.386       .  A
C2385      C2386   1.406       .  A
C2386      C2387   1.406       .  A
C2386      H2397   1.083       .  S
C2387      C2396   1.376       .  A
C2387      C2388   1.387       .  A
C2388      S2394   1.702       .  A
C2388      C2389   1.398       .  A
C2389      C2390   1.399       .  A
C2389      H2398   1.083       .  S
C2390      C2393   1.368       .  A
S2391      C2392   1.727       .  A
C2392      C2393   1.387       .  A
C2393      H2399   1.083       .  S
S2394      C2395   1.722       .  A
C2395      C2396   1.388       .  A
C2396      H2400   1.083       .  S
C2401      S2407   1.708       .  A
C2401      C2406   1.387       .  A
C2401      C2402   1.400       .  A
C2402      C2403   1.402       .  A
C2402      H2413   1.083       .  S
C2403      C2412   1.368       .  A
C2403      C2404   1.386       .  A
C2404      S2410   1.714       .  A
C2404      C2405   1.405       .  A
C2405      C2406   1.406       .  A
C2405      H2414   1.083       .  S
C2406      C2409   1.373       .  A
S2407      C2408   1.722       .  A
C2408      C2409   1.389       .  A
C2409      H2415   1.083       .  S
S2410      C2411   1.726       .  A
C2411      C2412   1.390       .  A
C2412      H2416   1.083       .  S
C2417      S2423   1.703       .  A
C2417      C2422   1.387       .  A
C2417      C2418   1.403       .  A
C2418      C2419   1.402       .  A
C2418      H2429   1.083       .  S
C2419      C2428   1.376   1_556  A
C2419      C2420   1.387       .  A
C2420      S2426   1.701   1_556  A
C2420      C2421   1.403       .  A
C2421      C2422   1.402       .  A
C2421      H2430   1.083       .  S
C2422      C2425   1.376       .  A
S2423      C2424   1.726       .  A
C2424      C2425   1.388       .  A
C2425      H2431   1.083       .  S
S2426      C2427   1.727       .  A
C2427      C2428   1.387       .  A
C2428      H2432   1.083       .  S
C2433      S2439   1.708       .  A
C2433      C2438   1.386       .  A
C2433      C2434   1.401       .  A
C2434      C2435   1.402       .  A
C2434      H2445   1.083       .  S
C2435      C2444   1.368       .  A
C2435      C2436   1.386       .  A
C2436      S2442   1.712       .  A
C2436      C2437   1.403       .  A
C2437      C2438   1.405       .  A
C2437      H2446   1.083       .  S
C2438      C2441   1.371       .  A
S2439      C2440   1.724       .  A
C2440      C2441   1.390       .  A
C2441      H2447   1.083       .  S
S2442      C2443   1.724       .  A
C2443      C2444   1.389       .  A
C2444      H2448   1.083       .  S
C2449      S2455   1.703       .  A
C2449      C2454   1.387       .  A
C2449      C2450   1.402       .  A
C2450      C2451   1.402       .  A
C2450      H2461   1.083       .  S
C2451      C2460   1.372       .  A
C2451      C2452   1.386       .  A
C2452      S2458   1.710       .  A
C2452      C2453   1.405       .  A
C2453      C2454   1.405       .  A
C2453      H2462   1.083       .  S
C2454      C2457   1.377       .  A
S2455      C2456   1.727       .  A
C2456      C2457   1.388       .  A
C2457      H2463   1.083       .  S
S2458      C2459   1.725       .  A
C2459      C2460   1.389       .  A
C2460      H2464   1.083       .  S
C2465      S2471   1.715       .  A
C2465      C2470   1.386       .  A
C2465      C2466   1.401       .  A
C2466      C2467   1.404       .  A
C2466      H2477   1.083       .  S
C2467      C2476   1.365       .  A
C2467      C2468   1.386       .  A
C2468      S2474   1.716       .  A
C2468      C2469   1.402       .  A
C2469      C2470   1.406       .  A
C2469      H2478   1.083       .  S
C2470      C2473   1.366       .  A
S2471      C2472   1.723       .  A
C2472      C2473   1.391       .  A
C2473      H2479   1.083       .  S
S2474      C2475   1.725       .  A
C2475      C2476   1.389       .  A
C2476      H2480   1.083       .  S
C2481      S2487   1.708       .  A
C2481      C2486   1.386       .  A
C2481      C2482   1.400       .  A
C2482      C2483   1.403       .  A
C2482      H2493   1.083       .  S
C2483      C2492   1.368       .  A
C2483      C2484   1.386       .  A
C2484      S2490   1.711       .  A
C2484      C2485   1.402       .  A
C2485      C2486   1.404       .  A
C2485      H2494   1.083       .  S
C2486      C2489   1.369       .  A
S2487      C2488   1.723       .  A
C2488      C2489   1.389       .  A
C2489      H2495   1.083       .  S
S2490      C2491   1.723   1_554  A
C2491      C2492   1.390   1_556  A
C2492      H2496   1.083   1_554  S
C2497      S2503   1.708       .  A
C2497      C2502   1.387       .  A
C2497      C2498   1.402   1_565  A
C2498      C2499   1.403       .  A
C2498      H2509   1.083       .  S
C2499      C2508   1.371       .  A
C2499      C2500   1.386       .  A
C2500      S2506   1.711       .  A
C2500      C2501   1.405       .  A
C2501      C2502   1.406   1_545  A
C2501      H2510   1.083       .  S
C2502      C2505   1.375       .  A
S2503      C2504   1.725       .  A
C2504      C2505   1.389       .  A
C2505      H2511   1.083       .  S
S2506      C2507   1.726       .  A
C2507      C2508   1.388       .  A
C2508      H2512   1.083       .  S
C2513      S2519   1.712       .  A
C2513      C2518   1.386       .  A
C2513      C2514   1.402       .  A
C2514      C2515   1.404       .  A
C2514      H2525   1.083       .  S
C2515      C2524   1.369       .  A
C2515      C2516   1.386       .  A
C2516      S2522   1.712       .  A
C2516      C2517   1.402       .  A
C2517      C2518   1.404       .  A
C2517      H2526   1.083       .  S
C2518      C2521   1.368       .  A
S2519      C2520   1.723       .  A
C2520      C2521   1.390       .  A
C2521      H2527   1.083       .  S
S2522      C2523   1.723       .  A
C2523      C2524   1.388       .  A
C2524      H2528   1.083       .  S
C2529      S2535   1.707       .  A
C2529      C2534   1.387       .  A
C2529      C2530   1.405       .  A
C2530      C2531   1.404       .  A
C2530      H2541   1.083       .  S
C2531      C2540   1.375       .  A
C2531      C2532   1.386       .  A
C2532      S2538   1.710       .  A
C2532      C2533   1.406       .  A
C2533      C2534   1.406       .  A
C2533      H2542   1.083       .  S
C2534      C2537   1.379       .  A
S2535      C2536   1.727       .  A
C2536      C2537   1.390       .  A
C2537      H2543   1.083       .  S
S2538      C2539   1.725       .  A
C2539      C2540   1.391       .  A
C2540      H2544   1.083       .  S
C2545      S2551   1.707       .  A
C2545      C2550   1.387       .  A
C2545      C2546   1.401   1_565  A
C2546      C2547   1.402       .  A
C2546      H2557   1.083       .  S
C2547      C2556   1.370       .  A
C2547      C2548   1.386       .  A
C2548      S2554   1.714       .  A
C2548      C2549   1.406       .  A
C2549      C2550   1.407   1_545  A
C2549      H2558   1.083       .  S
C2550      C2553   1.375       .  A
S2551      C2552   1.723       .  A
C2552      C2553   1.391       .  A
C2553      H2559   1.083       .  S
S2554      C2555   1.726       .  A
C2555      C2556   1.387       .  A
C2556      H2560   1.083       .  S
C2561      S2567   1.707       .  A
C2561      C2566   1.386       .  A
C2561      C2562   1.401       .  A
C2562      C2563   1.402       .  A
C2562      H2573   1.083       .  S
C2563      C2572   1.371       .  A
C2563      C2564   1.386       .  A
C2564      S2570   1.712       .  A
C2564      C2565   1.406       .  A
C2565      C2566   1.407       .  A
C2565      H2574   1.083       .  S
C2566      C2569   1.376       .  A
S2567      C2568   1.724       .  A
C2568      C2569   1.391       .  A
C2569      H2575   1.083       .  S
S2570      C2571   1.725       .  A
C2571      C2572   1.386       .  A
C2572      H2576   1.083       .  S
C2577      S2583   1.711       .  A
C2577      C2582   1.386       .  A
C2577      C2578   1.402       .  A
C2578      C2579   1.405       .  A
C2578      H2589   1.083       .  S
C2579      C2588   1.370       .  A
C2579      C2580   1.386       .  A
C2580      S2586   1.710       .  A
C2580      C2581   1.400       .  A
C2581      C2582   1.403       .  A
C2581      H2590   1.083       .  S
C2582      C2585   1.368       .  A
S2583      C2584   1.724       .  A
C2584      C2585   1.388       .  A
C2585      H2591   1.083       .  S
S2586      C2587   1.723       .  A
C2587      C2588   1.391       .  A
C2588      H2592   1.083       .  S
C2593      S2599   1.696       .  A
C2593      C2598   1.387       .  A
C2593      C2594   1.400       .  A
C2594      C2595   1.398       .  A
C2594      H2605   1.083       .  S
C2595      C2604   1.372       .  A
C2595      C2596   1.388       .  A
C2596      S2602   1.699       .  A
C2596      C2597   1.402       .  A
C2597      C2598   1.400       .  A
C2597      H2606   1.083       .  S
C2598      C2601   1.374       .  A
S2599      C2600   1.726       .  A
C2600      C2601   1.385       .  A
C2601      H2607   1.083       .  S
S2602      C2603   1.727       .  A
C2603      C2604   1.384       .  A
C2604      H2608   1.083       .  S
C2609      S2615   1.707       .  A
C2609      C2614   1.387       .  A
C2609      C2610   1.403       .  A
C2610      C2611   1.404       .  A
C2610      H2621   1.083       .  S
C2611      C2620   1.373       .  A
C2611      C2612   1.386       .  A
C2612      S2618   1.712       .  A
C2612      C2613   1.405       .  A
C2613      C2614   1.405       .  A
C2613      H2622   1.083       .  S
C2614      C2617   1.375       .  A
S2615      C2616   1.725       .  A
C2616      C2617   1.389       .  A
C2617      H2623   1.083       .  S
S2618      C2619   1.726       .  A
C2619      C2620   1.390       .  A
C2620      H2624   1.083       .  S
C2625      S2631   1.703       .  A
C2625      C2630   1.387       .  A
C2625      C2626   1.396       .  A
C2626      C2627   1.399       .  A
C2626      H2637   1.083       .  S
C2627      C2636   1.364       .  A
C2627      C2628   1.385       .  A
C2628      S2634   1.719       .  A
C2628      C2629   1.409       .  A
C2629      C2630   1.411       .  A
C2629      H2638   1.083       .  S
C2630      C2633   1.377       .  A
S2631      C2632   1.721       .  A
C2632      C2633   1.392       .  A
C2633      H2639   1.083       .  S
S2634      C2635   1.729       .  A
C2635      C2636   1.388       .  A
C2636      H2640   1.084       .  S
C2641      S2647   1.700       .  A
C2641      C2646   1.387       .  A
C2641      C2642   1.395       .  A
C2642      C2643   1.397       .  A
C2642      H2653   1.083       .  S
C2643      C2652   1.362       .  A
C2643      C2644   1.384       .  A
C2644      S2650   1.719       .  A
C2644      C2645   1.409       .  A
C2645      C2646   1.410       .  A
C2645      H2654   1.083       .  S
C2646      C2649   1.377       .  A
S2647      C2648   1.722       .  A
C2648      C2649   1.392       .  A
C2649      H2655   1.083       .  S
S2650      C2651   1.729       .  A
C2651      C2652   1.387       .  A
C2652      H2656   1.084       .  S
C2657      S2663   1.711       .  A
C2657      C2662   1.386       .  A
C2657      C2658   1.399       .  A
C2658      C2659   1.403       .  A
C2658      H2669   1.083       .  S
C2659      C2668   1.365       .  A
C2659      C2660   1.386       .  A
C2660      S2666   1.713       .  A
C2660      C2661   1.402       .  A
C2661      C2662   1.405       .  A
C2661      H2670   1.083       .  S
C2662      C2665   1.367       .  A
S2663      C2664   1.723       .  A
C2664      C2665   1.390       .  A
C2665      H2671   1.083       .  S
S2666      C2667   1.724       .  A
C2667      C2668   1.389       .  A
C2668      H2672   1.083       .  S
C2673      S2679   1.710       .  A
C2673      C2678   1.386       .  A
C2673      C2674   1.399       .  A
C2674      C2675   1.402       .  A
C2674      H2685   1.083       .  S
C2675      C2684   1.365   1_554  A
C2675      C2676   1.386       .  A
C2676      S2682   1.713   1_554  A
C2676      C2677   1.402       .  A
C2677      C2678   1.405       .  A
C2677      H2686   1.083       .  S
C2678      C2681   1.367       .  A
S2679      C2680   1.722       .  A
C2680      C2681   1.390       .  A
C2681      H2687   1.083       .  S
S2682      C2683   1.724       .  A
C2683      C2684   1.388       .  A
C2684      H2688   1.083       .  S
C2689      S2695   1.716       .  A
C2689      C2694   1.385       .  A
C2689      C2690   1.408       .  A
C2690      C2691   1.410       .  A
C2690      H2701   1.083       .  S
C2691      C2700   1.378       .  A
C2691      C2692   1.386       .  A
C2692      S2698   1.700       .  A
C2692      C2693   1.397       .  A
C2693      C2694   1.398       .  A
C2693      H2702   1.083       .  S
C2694      C2697   1.365       .  A
S2695      C2696   1.728       .  A
C2696      C2697   1.387       .  A
C2697      H2703   1.084       .  S
S2698      C2699   1.723       .  A
C2699      C2700   1.392       .  A
C2700      H2704   1.083       .  S
C2705      S2711   1.707       .  A
C2705      C2710   1.387       .  A
C2705      C2706   1.399       .  A
C2706      C2707   1.401       .  A
C2706      H2717   1.083       .  S
C2707      C2716   1.367       .  A
C2707      C2708   1.386       .  A
C2708      S2714   1.712       .  A
C2708      C2709   1.404       .  A
C2709      C2710   1.405       .  A
C2709      H2718   1.083       .  S
C2710      C2713   1.371       .  A
S2711      C2712   1.722       .  A
C2712      C2713   1.389       .  A
C2713      H2719   1.083       .  S
S2714      C2715   1.724       .  A
C2715      C2716   1.387       .  A
C2716      H2720   1.083       .  S
C2721      S2727   1.708       .  A
C2721      C2726   1.387       .  A
C2721      C2722   1.401       .  A
C2722      C2723   1.403       .  A
C2722      H2733   1.083       .  S
C2723      C2732   1.369       .  A
C2723      C2724   1.387       .  A
C2724      S2730   1.706       .  A
C2724      C2725   1.399       .  A
C2725      C2726   1.400       .  A
C2725      H2734   1.083       .  S
C2726      C2729   1.367       .  A
S2727      C2728   1.723       .  A
C2728      C2729   1.384       .  A
C2729      H2735   1.083       .  S
S2730      C2731   1.722       .  A
C2731      C2732   1.388       .  A
C2732      H2736   1.083       .  S
C2737      S2743   1.709       .  A
C2737      C2742   1.386       .  A
C2737      C2738   1.401       .  A
C2738      C2739   1.403       .  A
C2738      H2749   1.083       .  S
C2739      C2748   1.370       .  A
C2739      C2740   1.387       .  A
C2740      S2746   1.709       .  A
C2740      C2741   1.402       .  A
C2741      C2742   1.404       .  A
C2741      H2750   1.083       .  S
C2742      C2745   1.370       .  A
S2743      C2744   1.723       .  A
C2744      C2745   1.389       .  A
C2745      H2751   1.083       .  S
S2746      C2747   1.725       .  A
C2747      C2748   1.386       .  A
C2748      H2752   1.083       .  S
C2753      S2759   1.716       .  A
C2753      C2758   1.385       .  A
C2753      C2754   1.407       .  A
C2754      C2755   1.408       .  A
C2754      H2765   1.083       .  S
C2755      C2764   1.374       .  A
C2755      C2756   1.387       .  A
C2756      S2762   1.703       .  A
C2756      C2757   1.397       .  A
C2757      C2758   1.399       .  A
C2757      H2766   1.083       .  S
C2758      C2761   1.364       .  A
S2759      C2760   1.727       .  A
C2760      C2761   1.389       .  A
C2761      H2767   1.084       .  S
S2762      C2763   1.720       .  A
C2763      C2764   1.390       .  A
C2764      H2768   1.083       .  S
C2769      S2775   1.705       .  A
C2769      C2774   1.387       .  A
C2769      C2770   1.399       .  A
C2770      C2771   1.400       .  A
C2770      H2781   1.083       .  S
C2771      C2780   1.367       .  A
C2771      C2772   1.387       .  A
C2772      S2778   1.710       .  A
C2772      C2773   1.403       .  A
C2773      C2774   1.404       .  A
C2773      H2782   1.083       .  S
C2774      C2777   1.371       .  A
S2775      C2776   1.722       .  A
C2776      C2777   1.388       .  A
C2777      H2783   1.083       .  S
S2778      C2779   1.724   1_554  A
C2779      C2780   1.386   1_556  A
C2780      H2784   1.083       .  S
C2785      S2791   1.706       .  A
C2785      C2790   1.387       .  A
C2785      C2786   1.402       .  A
C2786      C2787   1.402       .  A
C2786      H2797   1.083       .  S
C2787      C2796   1.374       .  A
C2787      C2788   1.387       .  A
C2788      S2794   1.710       .  A
C2788      C2789   1.406       .  A
C2789      C2790   1.406       .  A
C2789      H2798   1.083       .  S
C2790      C2793   1.377   1_556  A
S2791      C2792   1.724   1_556  A
C2792      C2793   1.390       .  A
C2793      H2799   1.083       .  S
S2794      C2795   1.727       .  A
C2795      C2796   1.387       .  A
C2796      H2800   1.083       .  S
C2801      S2807   1.711       .  A
C2801      C2806   1.386       .  A
C2801      C2802   1.402       .  A
C2802      C2803   1.405       .  A
C2802      H2813   1.083       .  S
C2803      C2812   1.367       .  A
C2803      C2804   1.386       .  A
C2804      S2810   1.710       .  A
C2804      C2805   1.399       .  A
C2805      C2806   1.402       .  A
C2805      H2814   1.083       .  S
C2806      C2809   1.367       .  A
S2807      C2808   1.725       .  A
C2808      C2809   1.388       .  A
C2809      H2815   1.083       .  S
S2810      C2811   1.721       .  A
C2811      C2812   1.391       .  A
C2812      H2816   1.083       .  S
C2817      S2823   1.708       .  A
C2817      C2822   1.386       .  A
C2817      C2818   1.398       .  A
C2818      C2819   1.401       .  A
C2818      H2829   1.083       .  S
C2819      C2828   1.364       .  A
C2819      C2820   1.386       .  A
C2820      S2826   1.711       .  A
C2820      C2821   1.401       .  A
C2821      C2822   1.404       .  A
C2821      H2830   1.083       .  S
C2822      C2825   1.367       .  A
S2823      C2824   1.722       .  A
C2824      C2825   1.389       .  A
C2825      H2831   1.083       .  S
S2826      C2827   1.724       .  A
C2827      C2828   1.386       .  A
C2828      H2832   1.083       .  S
C2833      S2839   1.714       .  A
C2833      C2838   1.386       .  A
C2833      C2834   1.409       .  A
C2834      C2835   1.409       .  A
C2834      H2845   1.083       .  S
C2835      C2844   1.380       .  A
C2835      C2836   1.387       .  A
C2836      S2842   1.702       .  A
C2836      C2837   1.398       .  A
C2837      C2838   1.399       .  A
C2837      H2846   1.083       .  S
C2838      C2841   1.369       .  A
S2839      C2840   1.730       .  A
C2840      C2841   1.385       .  A
C2841      H2847   1.083       .  S
S2842      C2843   1.722       .  A
C2843      C2844   1.393       .  A
C2844      H2848   1.083       .  S
C2849      S2855   1.718       .  A
C2849      C2854   1.385       .  A
C2849      C2850   1.410       .  A
C2850      C2851   1.410       .  A
C2850      H2861   1.083       .  S
C2851      C2860   1.380       .  A
C2851      C2852   1.387       .  A
C2852      S2858   1.695       .  A
C2852      C2853   1.394       .  A
C2853      C2854   1.396       .  A
C2853      H2862   1.083       .  S
C2854      C2857   1.362       .  A
S2855      C2856   1.728       .  A
C2856      C2857   1.386       .  A
C2857      H2863   1.084       .  S
S2858      C2859   1.721       .  A
C2859      C2860   1.392       .  A
C2860      H2864   1.083       .  S
C2865      S2871   1.708       .  A
C2865      C2870   1.387       .  A
C2865      C2866   1.402       .  A
C2866      C2867   1.403   1_655  A
C2866      H2877   1.083   1_655  S
C2867      C2876   1.371       .  A
C2867      C2868   1.387       .  A
C2868      S2874   1.709       .  A
C2868      C2869   1.402   1_455  A
C2869      C2870   1.403       .  A
C2869      H2878   1.083       .  S
C2870      C2873   1.370       .  A
S2871      C2872   1.723       .  A
C2872      C2873   1.388       .  A
C2873      H2879   1.083       .  S
S2874      C2875   1.724       .  A
C2875      C2876   1.388       .  A
C2876      H2880   1.083       .  S
C2881      S2887   1.706       .  A
C2881      C2886   1.387       .  A
C2881      C2882   1.400       .  A
C2882      C2883   1.401   1_565  A
C2882      H2893   1.083   1_565  S
C2883      C2892   1.369       .  A
C2883      C2884   1.387       .  A
C2884      S2890   1.704       .  A
C2884      C2885   1.400   1_545  A
C2885      C2886   1.401       .  A
C2885      H2894   1.083       .  S
C2886      C2889   1.367       .  A
S2887      C2888   1.721       .  A
C2888      C2889   1.387       .  A
C2889      H2895   1.083       .  S
S2890      C2891   1.723       .  A
C2891      C2892   1.385       .  A
C2892      H2896   1.083       .  S
C2897      S2903   1.697       .  A
C2897      C2902   1.387       .  A
C2897      C2898   1.394       .  A
C2898      C2899   1.396       .  A
C2898      H2909   1.083       .  S
C2899      C2908   1.362       .  A
C2899      C2900   1.384       .  A
C2900      S2906   1.723       .  A
C2900      C2901   1.412       .  A
C2901      C2902   1.413       .  A
C2901      H2910   1.083       .  S
C2902      C2905   1.381       .  A
S2903      C2904   1.721       .  A
C2904      C2905   1.393       .  A
C2905      H2911   1.083       .  S
S2906      C2907   1.730       .  A
C2907      C2908   1.387       .  A
C2908      H2912   1.084       .  S
C2913      S2919   1.709       .  A
C2913      C2918   1.386       .  A
C2913      C2914   1.405   1_455  A
C2914      C2915   1.405       .  A
C2914      H2925   1.083       .  S
C2915      C2924   1.376       .  A
C2915      C2916   1.387       .  A
C2916      S2922   1.707       .  A
C2916      C2917   1.403       .  A
C2917      C2918   1.403   1_655  A
C2917      H2926   1.083       .  S
C2918      C2921   1.374       .  A
S2919      C2920   1.727       .  A
C2920      C2921   1.389       .  A
C2921      H2927   1.083       .  S
S2922      C2923   1.725       .  A
C2923      C2924   1.388       .  A
C2924      H2928   1.083       .  S
C2929      S2935   1.708       .  A
C2929      C2934   1.387       .  A
C2929      C2930   1.403   1_545  A
C2930      C2931   1.404       .  A
C2930      H2941   1.083       .  S
C2931      C2940   1.372       .  A
C2931      C2932   1.387       .  A
C2932      S2938   1.707       .  A
C2932      C2933   1.402       .  A
C2933      C2934   1.402   1_565  A
C2933      H2942   1.083       .  S
C2934      C2937   1.371       .  A
S2935      C2936   1.723       .  A
C2936      C2937   1.386       .  A
C2937      H2943   1.083       .  S
S2938      C2939   1.724       .  A
C2939      C2940   1.389       .  A
C2940      H2944   1.083       .  S
C2945      S2951   1.709       .  A
C2945      C2950   1.386       .  A
C2945      C2946   1.401       .  A
C2946      C2947   1.403       .  A
C2946      H2957   1.083       .  S
C2947      C2956   1.368   1_556  A
C2947      C2948   1.386       .  A
C2948      S2954   1.710       .  A
C2948      C2949   1.401       .  A
C2949      C2950   1.403       .  A
C2949      H2958   1.083       .  S
C2950      C2953   1.369       .  A
S2951      C2952   1.724       .  A
C2952      C2953   1.388       .  A
C2953      H2959   1.083       .  S
S2954      C2955   1.723   1_556  A
C2955      C2956   1.389       .  A
C2956      H2960   1.083       .  S
C2961      S2967   1.702       .  A
C2961      C2966   1.387       .  A
C2961      C2962   1.402       .  A
C2962      C2963   1.401       .  A
C2962      H2973   1.083       .  S
C2963      C2972   1.374       .  A
C2963      C2964   1.387       .  A
C2964      S2970   1.700       .  A
C2964      C2965   1.401       .  A
C2965      C2966   1.400       .  A
C2965      H2974   1.083       .  S
C2966      C2969   1.372       .  A
S2967      C2968   1.725       .  A
C2968      C2969   1.385       .  A
C2969      H2975   1.083       .  S
S2970      C2971   1.726       .  A
C2971      C2972   1.386       .  A
C2972      H2976   1.083       .  S
C2977      S2983   1.715       .  A
C2977      C2982   1.385       .  A
C2977      C2978   1.407       .  A
C2978      C2979   1.408       .  A
C2978      H2989   1.083       .  S
C2979      C2988   1.376       .  A
C2979      C2980   1.387       .  A
C2980      S2986   1.698       .  A
C2980      C2981   1.395       .  A
C2981      C2982   1.397       .  A
C2981      H2990   1.083       .  S
C2982      C2985   1.363       .  A
S2983      C2984   1.726       .  A
C2984      C2985   1.386       .  A
C2985      H2991   1.084       .  S
S2986      C2987   1.721       .  A
C2987      C2988   1.390       .  A
C2988      H2992   1.083       .  S
C2993      S2999   1.708       .  A
C2993      C2998   1.387       .  A
C2993      C2994   1.399       .  A
C2994      C2995   1.401   1_655  A
C2994      H3005   1.083   1_655  S
C2995      C3004   1.366       .  A
C2995      C2996   1.387       .  A
C2996      S3002   1.710       .  A
C2996      C2997   1.401   1_455  A
C2997      C2998   1.403       .  A
C2997      H3006   1.083       .  S
C2998      C3001   1.368       .  A
S2999      C3000   1.721       .  A
C3000      C3001   1.388       .  A
C3001      H3007   1.083       .  S
S3002      C3003   1.724       .  A
C3003      C3004   1.386       .  A
C3004      H3008   1.083       .  S
C3009      S3015   1.716       .  A
C3009      C3014   1.386       .  A
C3009      C3010   1.407       .  A
C3010      C3011   1.408       .  A
C3010      H3021   1.083       .  S
C3011      C3020   1.376       .  A
C3011      C3012   1.387       .  A
C3012      S3018   1.706       .  A
C3012      C3013   1.400       .  A
C3013      C3014   1.401       .  A
C3013      H3022   1.083       .  S
C3014      C3017   1.368       .  A
S3015      C3016   1.727       .  A
C3016      C3017   1.387       .  A
C3017      H3023   1.083       .  S
S3018      C3019   1.723       .  A
C3019      C3020   1.392       .  A
C3020      H3024   1.083       .  S
C3025      S3031   1.698       .  A
C3025      C3030   1.387       .  A
C3025      C3026   1.393       .  A
C3026      C3027   1.395       .  A
C3026      H3037   1.083       .  S
C3027      C3036   1.360       .  A
C3027      C3028   1.384       .  A
C3028      S3034   1.724       .  A
C3028      C3029   1.413       .  A
C3029      C3030   1.414       .  A
C3029      H3038   1.083       .  S
C3030      C3033   1.380       .  A
S3031      C3032   1.718       .  A
C3032      C3033   1.393       .  A
C3033      H3039   1.083       .  S
S3034      C3035   1.732       .  A
C3035      C3036   1.386       .  A
C3036      H3040   1.083       .  S
C3041      S3047   1.709       .  A
C3041      C3046   1.387       .  A
C3041      C3042   1.404       .  A
C3042      C3043   1.405   1_655  A
C3042      H3053   1.083       .  S
C3043      C3052   1.376       .  A
C3043      C3044   1.386       .  A
C3044      S3050   1.710       .  A
C3044      C3045   1.405   1_455  A
C3045      C3046   1.405       .  A
C3045      H3054   1.083       .  S
C3046      C3049   1.375       .  A
S3047      C3048   1.726       .  A
C3048      C3049   1.388       .  A
C3049      H3055   1.083       .  S
S3050      C3051   1.727       .  A
C3051      C3052   1.390       .  A
C3052      H3056   1.083       .  S
C3057      S3063   1.712       .  A
C3057      C3062   1.386       .  A
C3057      C3058   1.403       .  A
C3058      C3059   1.405       .  A
C3058      H3069   1.083       .  S
C3059      C3068   1.371       .  A
C3059      C3060   1.386       .  A
C3060      S3066   1.709       .  A
C3060      C3061   1.401       .  A
C3061      C3062   1.403       .  A
C3061      H3070   1.083       .  S
C3062      C3065   1.369       .  A
S3063      C3064   1.725       .  A
C3064      C3065   1.388       .  A
C3065      H3071   1.083       .  S
S3066      C3067   1.723       .  A
C3067      C3068   1.390       .  A
C3068      H3072   1.083       .  S
C3073      S3079   1.700       .  A
C3073      C3078   1.387       .  A
C3073      C3074   1.401       .  A
C3074      C3075   1.400       .  A
C3074      H3085   1.083       .  S
C3075      C3084   1.372       .  A
C3075      C3076   1.387       .  A
C3076      S3082   1.703       .  A
C3076      C3077   1.402       .  A
C3077      C3078   1.401       .  A
C3077      H3086   1.083       .  S
C3078      C3081   1.374       .  A
S3079      C3080   1.726       .  A
C3080      C3081   1.386       .  A
C3081      H3087   1.083       .  S
S3082      C3083   1.726       .  A
C3083      C3084   1.385       .  A
C3084      H3088   1.083       .  S
C3089      S3095   1.700       .  A
C3089      C3094   1.387       .  A
C3089      C3090   1.400       .  A
C3090      C3091   1.399       .  A
C3090      H3101   1.083       .  S
C3091      C3100   1.370       .  A
C3091      C3092   1.386       .  A
C3092      S3098   1.713       .  A
C3092      C3093   1.409       .  A
C3093      C3094   1.408       .  A
C3093      H3102   1.083       .  S
C3094      C3097   1.381       .  A
S3095      C3096   1.725       .  A
C3096      C3097   1.392       .  A
C3097      H3103   1.083       .  S
S3098      C3099   1.728       .  A
C3099      C3100   1.386       .  A
C3100      H3104   1.083       .  S
C3105      S3111   1.701       .  A
C3105      C3110   1.387       .  A
C3105      C3106   1.397       .  A
C3106      C3107   1.399       .  A
C3106      H3117   1.083       .  S
C3107      C3116   1.363       .  A
C3107      C3108   1.385       .  A
C3108      S3114   1.714       .  A
C3108      C3109   1.406       .  A
C3109      C3110   1.407       .  A
C3109      H3118   1.083       .  S
C3110      C3113   1.374       .  A
S3111      C3112   1.722       .  A
C3112      C3113   1.390       .  A
C3113      H3119   1.083       .  S
S3114      C3115   1.726       .  A
C3115      C3116   1.388       .  A
C3116      H3120   1.084       .  S
C3121      S3127   1.703       .  A
C3121      C3126   1.387       .  A
C3121      C3122   1.399       .  A
C3122      C3123   1.400       .  A
C3122      H3133   1.083       .  S
C3123      C3132   1.369       .  A
C3123      C3124   1.386       .  A
C3124      S3130   1.711       .  A
C3124      C3125   1.406       .  A
C3125      C3126   1.406       .  A
C3125      H3134   1.083       .  S
C3126      C3129   1.376       .  A
S3127      C3128   1.723       .  A
C3128      C3129   1.390       .  A
C3129      H3135   1.083       .  S
S3130      C3131   1.725       .  A
C3131      C3132   1.386       .  A
C3132      H3136   1.083       .  S
C3137      S3143   1.719       .  A
C3137      C3142   1.384       .  A
C3137      C3138   1.409       .  A
C3138      C3139   1.411       .  A
C3138      H3149   1.083       .  S
C3139      C3148   1.376       .  A
C3139      C3140   1.387       .  A
C3140      S3146   1.701       .  A
C3140      C3141   1.395       .  A
C3141      C3142   1.397       .  A
C3141      H3150   1.083       .  S
C3142      C3145   1.362       .  A
S3143      C3144   1.730       .  A
C3144      C3145   1.386       .  A
C3145      H3151   1.084       .  S
S3146      C3147   1.720       .  A
C3147      C3148   1.393       .  A
C3148      H3152   1.083       .  S
C3153      S3159   1.706       .  A
C3153      C3158   1.387       .  A
C3153      C3154   1.402       .  A
C3154      C3155   1.402       .  A
C3154      H3165   1.083       .  S
C3155      C3164   1.373       .  A
C3155      C3156   1.387       .  A
C3156      S3162   1.705       .  A
C3156      C3157   1.403       .  A
C3157      C3158   1.402       .  A
C3157      H3166   1.083       .  S
C3158      C3161   1.372       .  A
S3159      C3160   1.723       .  A
C3160      C3161   1.387       .  A
C3161      H3167   1.083       .  S
S3162      C3163   1.725       .  A
C3163      C3164   1.387       .  A
C3164      H3168   1.083       .  S
C3169      S3175   1.702       .  A
C3169      C3174   1.387       .  A
C3169      C3170   1.403       .  A
C3170      C3171   1.402       .  A
C3170      H3181   1.083       .  S
C3171      C3180   1.375       .  A
C3171      C3172   1.387       .  A
C3172      S3178   1.704       .  A
C3172      C3173   1.404       .  A
C3173      C3174   1.403       .  A
C3173      H3182   1.083       .  S
C3174      C3177   1.376       .  A
S3175      C3176   1.725       .  A
C3176      C3177   1.388       .  A
C3177      H3183   1.083       .  S
S3178      C3179   1.727       .  A
C3179      C3180   1.387       .  A
C3180      H3184   1.083       .  S
C3185      S3191   1.711       .  A
C3185      C3190   1.386       .  A
C3185      C3186   1.402       .  A
C3186      C3187   1.404       .  A
C3186      H3197   1.083       .  S
C3187      C3196   1.369   1_554  A
C3187      C3188   1.386       .  A
C3188      S3194   1.712   1_554  A
C3188      C3189   1.402       .  A
C3189      C3190   1.404       .  A
C3189      H3198   1.083       .  S
C3190      C3193   1.369       .  A
S3191      C3192   1.724       .  A
C3192      C3193   1.390       .  A
C3193      H3199   1.083       .  S
S3194      C3195   1.724       .  A
C3195      C3196   1.389       .  A
C3196      H3200   1.083       .  S
C3201      S3207   1.714       .  A
C3201      C3206   1.385       .  A
C3201      C3202   1.407       .  A
C3202      C3203   1.408       .  A
C3202      H3213   1.083       .  S
C3203      C3212   1.375       .  A
C3203      C3204   1.386       .  A
C3204      S3210   1.701       .  A
C3204      C3205   1.396       .  A
C3205      C3206   1.398       .  A
C3205      H3214   1.083       .  S
C3206      C3209   1.364       .  A
S3207      C3208   1.728       .  A
C3208      C3209   1.386       .  A
C3209      H3215   1.084       .  S
S3210      C3211   1.721       .  A
C3211      C3212   1.391       .  A
C3212      H3216   1.083       .  S
C3217      S3223   1.709       .  A
C3217      C3222   1.387       .  A
C3217      C3218   1.404       .  A
C3218      C3219   1.405       .  A
C3218      H3229   1.083       .  S
C3219      C3228   1.375       .  A
C3219      C3220   1.387       .  A
C3220      S3226   1.703       .  A
C3220      C3221   1.400       .  A
C3221      C3222   1.401       .  A
C3221      H3230   1.083       .  S
C3222      C3225   1.370       .  A
S3223      C3224   1.725       .  A
C3224      C3225   1.384       .  A
C3225      H3231   1.083       .  S
S3226      C3227   1.725       .  A
C3227      C3228   1.389       .  A
C3228      H3232   1.083       .  S
C3233      S3239   1.707       .  A
C3233      C3238   1.387       .  A
C3233      C3234   1.400       .  A
C3234      C3235   1.401       .  A
C3234      H3245   1.083       .  S
C3235      C3244   1.368       .  A
C3235      C3236   1.387       .  A
C3236      S3242   1.706       .  A
C3236      C3237   1.401       .  A
C3237      C3238   1.403       .  A
C3237      H3246   1.083       .  S
C3238      C3241   1.369       .  A
S3239      C3240   1.721       .  A
C3240      C3241   1.388       .  A
C3241      H3247   1.083       .  S
S3242      C3243   1.724       .  A
C3243      C3244   1.385       .  A
C3244      H3248   1.083       .  S
C3249      S3255   1.703       .  A
C3249      C3254   1.387       .  A
C3249      C3250   1.401       .  A
C3250      C3251   1.401       .  A
C3250      H3261   1.083       .  S
C3251      C3260   1.371       .  A
C3251      C3252   1.386       .  A
C3252      S3258   1.712       .  A
C3252      C3253   1.406       .  A
C3253      C3254   1.407       .  A
C3253      H3262   1.083       .  S
C3254      C3257   1.378       .  A
S3255      C3256   1.725       .  A
C3256      C3257   1.390       .  A
C3257      H3263   1.083       .  S
S3258      C3259   1.726       .  A
C3259      C3260   1.387       .  A
C3260      H3264   1.083       .  S
C3265      S3271   1.703       .  A
C3265      C3270   1.387       .  A
C3265      C3266   1.396       .  A
C3266      C3267   1.399       .  A
C3266      H3277   1.083       .  S
C3267      C3276   1.364       .  A
C3267      C3268   1.385       .  A
C3268      S3274   1.718       .  A
C3268      C3269   1.408       .  A
C3269      C3270   1.410       .  A
C3269      H3278   1.083       .  S
C3270      C3273   1.375       .  A
S3271      C3272   1.719       .  A
C3272      C3273   1.391       .  A
C3273      H3279   1.083       .  S
S3274      C3275   1.728       .  A
C3275      C3276   1.389       .  A
C3276      H3280   1.084       .  S
C3281      S3287   1.707       .  A
C3281      C3286   1.387       .  A
C3281      C3282   1.404       .  A
C3282      C3283   1.403       .  A
C3282      H3293   1.083       .  S
C3283      C3292   1.375       .  A
C3283      C3284   1.387       .  A
C3284      S3290   1.706       .  A
C3284      C3285   1.404   1_556  A
C3285      C3286   1.404   1_554  A
C3285      H3294   1.083       .  S
C3286      C3289   1.375   1_556  A
S3287      C3288   1.725   1_556  A
C3288      C3289   1.388       .  A
C3289      H3295   1.083       .  S
S3290      C3291   1.726       .  A
C3291      C3292   1.388       .  A
C3292      H3296   1.083       .  S
C3297      S3303   1.703       .  A
C3297      C3302   1.387       .  A
C3297      C3298   1.400       .  A
C3298      C3299   1.400       .  A
C3298      H3309   1.083       .  S
C3299      C3308   1.369       .  A
C3299      C3300   1.387       .  A
C3300      S3306   1.707       .  A
C3300      C3301   1.403       .  A
C3301      C3302   1.403       .  A
C3301      H3310   1.083       .  S
C3302      C3305   1.372       .  A
S3303      C3304   1.723       .  A
C3304      C3305   1.388       .  A
C3305      H3311   1.083       .  S
S3306      C3307   1.725       .  A
C3307      C3308   1.384       .  A
C3308      H3312   1.083   1_554  S
C3313      S3319   1.709       .  A
C3313      C3318   1.386       .  A
C3313      C3314   1.399       .  A
C3314      C3315   1.402       .  A
C3314      H3325   1.083       .  S
C3315      C3324   1.365       .  A
C3315      C3316   1.387       .  A
C3316      S3322   1.708       .  A
C3316      C3317   1.399       .  A
C3317      C3318   1.402       .  A
C3317      H3326   1.083       .  S
C3318      C3321   1.364       .  A
S3319      C3320   1.722       .  A
C3320      C3321   1.388       .  A
C3321      H3327   1.083       .  S
S3322      C3323   1.722       .  A
C3323      C3324   1.387       .  A
C3324      H3328   1.083       .  S
C3329      S3335   1.710       .  A
C3329      C3334   1.386       .  A
C3329      C3330   1.399       .  A
C3330      C3331   1.402       .  A
C3330      H3341   1.083       .  S
C3331      C3340   1.365       .  A
C3331      C3332   1.386       .  A
C3332      S3338   1.713       .  A
C3332      C3333   1.402       .  A
C3333      C3334   1.405       .  A
C3333      H3342   1.083       .  S
C3334      C3337   1.367       .  A
S3335      C3336   1.722       .  A
C3336      C3337   1.390       .  A
C3337      H3343   1.083       .  S
S3338      C3339   1.724       .  A
C3339      C3340   1.388       .  A
C3340      H3344   1.083       .  S
C3345      S3351   1.710       .  A
C3345      C3350   1.387       .  A
C3345      C3346   1.403       .  A
C3346      C3347   1.404       .  A
C3346      H3357   1.083       .  S
C3347      C3356   1.373       .  A
C3347      C3348   1.387       .  A
C3348      S3354   1.703       .  A
C3348      C3349   1.399       .  A
C3349      C3350   1.400       .  A
C3349      H3358   1.083       .  S
C3350      C3353   1.367       .  A
S3351      C3352   1.725       .  A
C3352      C3353   1.386       .  A
C3353      H3359   1.083       .  S
S3354      C3355   1.724       .  A
C3355      C3356   1.388       .  A
C3356      H3360   1.083       .  S
C3361      S3367   1.710       .  A
C3361      C3366   1.387       .  A
C3361      C3362   1.399       .  A
C3362      C3363   1.402       .  A
C3362      H3373   1.083       .  S
C3363      C3372   1.364       .  A
C3363      C3364   1.387       .  A
C3364      S3370   1.713       .  A
C3364      C3365   1.401       .  A
C3365      C3366   1.404       .  A
C3365      H3374   1.083       .  S
C3366      C3369   1.367       .  A
S3367      C3368   1.718       .  A
C3368      C3369   1.386       .  A
C3369      H3375   1.083       .  S
S3370      C3371   1.721       .  A
C3371      C3372   1.385       .  A
C3372      H3376   1.083       .  S
C3377      S3383   1.703       .  A
C3377      C3382   1.387       .  A
C3377      C3378   1.400       .  A
C3378      C3379   1.400   1_545  A
C3378      H3389   1.083       .  S
C3379      C3388   1.370       .  A
C3379      C3380   1.387       .  A
C3380      S3386   1.705       .  A
C3380      C3381   1.402   1_565  A
C3381      C3382   1.402       .  A
C3381      H3390   1.083       .  S
C3382      C3385   1.372       .  A
S3383      C3384   1.723       .  A
C3384      C3385   1.386       .  A
C3385      H3391   1.083       .  S
S3386      C3387   1.725       .  A
C3387      C3388   1.385       .  A
C3388      H3392   1.083       .  S
C3393      S3399   1.706       .  A
C3393      C3398   1.387       .  A
C3393      C3394   1.402   1_655  A
C3394      C3395   1.402       .  A
C3394      H3405   1.083       .  S
C3395      C3404   1.370       .  A
C3395      C3396   1.387       .  A
C3396      S3402   1.706       .  A
C3396      C3397   1.401       .  A
C3397      C3398   1.402   1_455  A
C3397      H3406   1.083       .  S
C3398      C3401   1.371       .  A
S3399      C3400   1.725       .  A
C3400      C3401   1.387       .  A
C3401      H3407   1.083       .  S
S3402      C3403   1.723       .  A
C3403      C3404   1.385       .  A
C3404      H3408   1.083       .  S
C3409      S3415   1.719       .  A
C3409      C3414   1.385       .  A
C3409      C3410   1.408       .  A
C3410      C3411   1.410       .  A
C3410      H3421   1.083       .  S
C3411      C3420   1.376       .  A
C3411      C3412   1.387       .  A
C3412      S3418   1.696       .  A
C3412      C3413   1.393       .  A
C3413      C3414   1.395       .  A
C3413      H3422   1.083       .  S
C3414      C3417   1.360       .  A
S3415      C3416   1.728       .  A
C3416      C3417   1.387       .  A
C3417      H3423   1.084       .  S
S3418      C3419   1.719       .  A
C3419      C3420   1.389       .  A
C3420      H3424   1.083       .  S
C3425      S3431   1.705       .  A
C3425      C3430   1.387       .  A
C3425      C3426   1.403   1_565  A
C3426      C3427   1.402       .  A
C3426      H3437   1.083       .  S
C3427      C3436   1.374       .  A
C3427      C3428   1.387       .  A
C3428      S3434   1.703       .  A
C3428      C3429   1.402       .  A
C3429      C3430   1.401   1_545  A
C3429      H3438   1.083       .  S
C3430      C3433   1.372       .  A
S3431      C3432   1.725       .  A
C3432      C3433   1.387       .  A
C3433      H3439   1.083       .  S
S3434      C3435   1.724       .  A
C3435      C3436   1.386       .  A
C3436      H3440   1.083       .  S
C3441      S3447   1.704       .  A
C3441      C3446   1.387       .  A
C3441      C3442   1.398   1_655  A
C3442      C3443   1.400       .  A
C3442      H3453   1.083       .  S
C3443      C3452   1.366       .  A
C3443      C3444   1.386       .  A
C3444      S3450   1.713       .  A
C3444      C3445   1.406       .  A
C3445      C3446   1.407   1_455  A
C3445      H3454   1.083       .  S
C3446      C3449   1.374       .  A
S3447      C3448   1.721       .  A
C3448      C3449   1.389       .  A
C3449      H3455   1.083       .  S
S3450      C3451   1.726       .  A
C3451      C3452   1.386       .  A
C3452      H3456   1.083       .  S
C3457      S3463   1.704       .  A
C3457      C3462   1.387       .  A
C3457      C3458   1.403       .  A
C3458      C3459   1.402       .  A
C3458      H3469   1.083       .  S
C3459      C3468   1.374   1_556  A
C3459      C3460   1.387       .  A
C3460      S3466   1.704   1_556  A
C3460      C3461   1.403       .  A
C3461      C3462   1.402       .  A
C3461      H3470   1.083       .  S
C3462      C3465   1.374       .  A
S3463      C3464   1.727       .  A
C3464      C3465   1.388       .  A
C3465      H3471   1.083       .  S
S3466      C3467   1.726       .  A
C3467      C3468   1.388       .  A
C3468      H3472   1.083       .  S
C3473      S3479   1.704       .  A
C3473      C3478   1.387       .  A
C3473      C3474   1.404       .  A
C3474      C3475   1.403       .  A
C3474      H3485   1.083       .  S
C3475      C3484   1.376       .  A
C3475      C3476   1.387       .  A
C3476      S3482   1.703       .  A
C3476      C3477   1.402       .  A
C3477      C3478   1.401       .  A
C3477      H3486   1.083       .  S
C3478      C3481   1.374       .  A
S3479      C3480   1.728       .  A
C3480      C3481   1.386       .  A
C3481      H3487   1.083       .  S
S3482      C3483   1.725       .  A
C3483      C3484   1.389       .  A
C3484      H3488   1.083       .  S
C3489      S3495   1.717       .  A
C3489      C3494   1.385       .  A
C3489      C3490   1.408       .  A
C3490      C3491   1.410       .  A
C3490      H3501   1.083       .  S
C3491      C3500   1.376       .  A
C3491      C3492   1.387       .  A
C3492      S3498   1.695       .  A
C3492      C3493   1.391       .  A
C3493      C3494   1.393       .  A
C3493      H3502   1.083       .  S
C3494      C3497   1.358       .  A
S3495      C3496   1.728       .  A
C3496      C3497   1.383       .  A
C3497      H3503   1.084       .  S
S3498      C3499   1.717       .  A
C3499      C3500   1.391       .  A
C3500      H3504   1.083       .  S
C3505      S3511   1.712       .  A
C3505      C3510   1.386       .  A
C3505      C3506   1.403       .  A
C3506      C3507   1.404       .  A
C3506      H3517   1.083       .  S
C3507      C3516   1.371       .  A
C3507      C3508   1.386       .  A
C3508      S3514   1.713       .  A
C3508      C3509   1.404       .  A
C3509      C3510   1.406       .  A
C3509      H3518   1.083       .  S
C3510      C3513   1.374       .  A
S3511      C3512   1.726       .  A
C3512      C3513   1.390       .  A
C3513      H3519   1.083       .  S
S3514      C3515   1.725       .  A
C3515      C3516   1.388       .  A
C3516      H3520   1.083       .  S
C3521      S3527   1.706       .  A
C3521      C3526   1.387       .  A
C3521      C3522   1.403       .  A
C3522      C3523   1.403   1_455  A
C3522      H3533   1.083       .  S
C3523      C3532   1.373       .  A
C3523      C3524   1.387       .  A
C3524      S3530   1.700       .  A
C3524      C3525   1.399   1_655  A
C3525      C3526   1.399       .  A
C3525      H3534   1.083       .  S
C3526      C3529   1.369       .  A
S3527      C3528   1.724       .  A
C3528      C3529   1.384       .  A
C3529      H3535   1.083       .  S
S3530      C3531   1.723       .  A
C3531      C3532   1.387       .  A
C3532      H3536   1.083       .  S
C3537      S3543   1.701       .  A
C3537      C3542   1.387       .  A
C3537      C3538   1.397       .  A
C3538      C3539   1.398       .  A
C3538      H3549   1.083       .  S
C3539      C3548   1.367       .  A
C3539      C3540   1.386       .  A
C3540      S3546   1.715       .  A
C3540      C3541   1.408       .  A
C3541      C3542   1.409       .  A
C3541      H3550   1.083       .  S
C3542      C3545   1.378       .  A
S3543      C3544   1.722       .  A
C3544      C3545   1.391       .  A
C3545      H3551   1.083       .  S
S3546      C3547   1.728       .  A
C3547      C3548   1.385       .  A
C3548      H3552   1.083       .  S
C3553      S3559   1.719       .  A
C3553      C3558   1.385       .  A
C3553      C3554   1.409       .  A
C3554      C3555   1.410       .  A
C3554      H3565   1.083       .  S
C3555      C3564   1.377       .  A
C3555      C3556   1.387       .  A
C3556      S3562   1.693       .  A
C3556      C3557   1.390       .  A
C3557      C3558   1.393       .  A
C3557      H3566   1.083       .  S
C3558      C3561   1.357       .  A
S3559      C3560   1.728       .  A
C3560      C3561   1.383       .  A
C3561      H3567   1.084       .  S
S3562      C3563   1.720       .  A
C3563      C3564   1.391       .  A
C3564      H3568   1.083       .  S
C3569      S3575   1.706       .  A
C3569      C3574   1.387       .  A
C3569      C3570   1.402       .  A
C3570      C3571   1.402       .  A
C3570      H3581   1.083       .  S
C3571      C3580   1.370       .  A
C3571      C3572   1.387       .  A
C3572      S3578   1.707       .  A
C3572      C3573   1.401       .  A
C3573      C3574   1.402       .  A
C3573      H3582   1.083       .  S
C3574      C3577   1.371       .  A
S3575      C3576   1.724       .  A
C3576      C3577   1.387       .  A
C3577      H3583   1.083       .  S
S3578      C3579   1.723       .  A
C3579      C3580   1.387       .  A
C3580      H3584   1.083       .  S
C3585      S3591   1.709       .  A
C3585      C3590   1.386       .  A
C3585      C3586   1.402   1_655  A
C3586      C3587   1.404       .  A
C3586      H3597   1.083       .  S
C3587      C3596   1.372       .  A
C3587      C3588   1.387       .  A
C3588      S3594   1.708       .  A
C3588      C3589   1.402       .  A
C3589      C3590   1.403   1_455  A
C3589      H3598   1.083       .  S
C3590      C3593   1.370       .  A
S3591      C3592   1.724       .  A
C3592      C3593   1.388       .  A
C3593      H3599   1.083       .  S
S3594      C3595   1.724       .  A
C3595      C3596   1.387       .  A
C3596      H3600   1.083       .  S
C3601      S3607   1.712       .  A
C3601      C3606   1.386       .  A
C3601      C3602   1.401       .  A
C3602      C3603   1.404       .  A
C3602      H3613   1.083       .  S
C3603      C3612   1.369       .  A
C3603      C3604   1.386       .  A
C3604      S3610   1.713       .  A
C3604      C3605   1.403       .  A
C3605      C3606   1.405       .  A
C3605      H3614   1.083       .  S
C3606      C3609   1.369       .  A
S3607      C3608   1.723       .  A
C3608      C3609   1.390       .  A
C3609      H3615   1.083       .  S
S3610      C3611   1.725       .  A
C3611      C3612   1.390       .  A
C3612      H3616   1.083       .  S
C3617      S3623   1.711       .  A
C3617      C3622   1.386       .  A
C3617      C3618   1.400       .  A
C3618      C3619   1.403       .  A
C3618      H3629   1.083       .  S
C3619      C3628   1.366       .  A
C3619      C3620   1.386       .  A
C3620      S3626   1.709       .  A
C3620      C3621   1.399       .  A
C3621      C3622   1.402       .  A
C3621      H3630   1.083       .  S
C3622      C3625   1.365       .  A
S3623      C3624   1.723       .  A
C3624      C3625   1.388       .  A
C3625      H3631   1.083       .  S
S3626      C3627   1.722       .  A
C3627      C3628   1.389       .  A
C3628      H3632   1.083       .  S
C3633      S3639   1.712       .  A
C3633      C3638   1.386       .  A
C3633      C3634   1.407       .  A
C3634      C3635   1.407       .  A
C3634      H3645   1.083       .  S
C3635      C3644   1.377       .  A
C3635      C3636   1.387       .  A
C3636      S3642   1.695       .  A
C3636      C3637   1.396       .  A
C3637      C3638   1.396       .  A
C3637      H3646   1.083       .  S
C3638      C3641   1.365       .  A
S3639      C3640   1.727       .  A
C3640      C3641   1.383       .  A
C3641      H3647   1.083       .  S
S3642      C3643   1.723       .  A
C3643      C3644   1.389       .  A
C3644      H3648   1.083       .  S
