geometry optimzed in LAMMPS
_audit_creation_date              2020-12-01 
_audit_creation_method            'lammps2cif' 
_symmetry_space_group_name_H-M    'P1' 
_symmetry_Int_Tables_number       1 
_symmetry_cell_setting            triclinic 
loop_ 
_symmetry_equiv_pos_as_xyz 
  x,y,z 
_cell_length_a                    38.04135638 
_cell_length_b                    37.909058213061854 
_cell_length_c                    74.93940159879074 
_cell_angle_alpha                 89.97277036385569 
_cell_angle_beta                  90.1845790688172 
_cell_angle_gamma                 90.2328421152989 
loop_ 
_atom_site_label 
_atom_site_type_symbol 
_atom_site_fract_x 
_atom_site_fract_y 
_atom_site_fract_z 
_atom_site_charge 
Zr1        Zr  0.14147923  0.99111667  0.55292183     2.17500
O2          O  0.14211298  0.05310935  0.54438373    -0.52200
O3          O  0.19482708  0.99631158  0.53415168    -0.75400
O4          O  0.16232182  0.02772415  0.58068506    -0.82200
O5          O  0.09000327  0.95874794  0.51145145    -0.83900
O6          O  0.16721601  0.99237325  0.60504919    -0.79500
O7          O  0.09249844  0.00445742  0.53098022    -0.91200
O8          O  0.22493254  0.94468296  0.53617219    -0.77100
O9          O  0.17693773  0.95457728  0.57138625    -0.86600
O10         O  0.15409662  0.93842699  0.53557220    -0.86300
O11         O  0.10560876  0.97784076  0.57850087    -0.73100
O12         O  0.08947936  0.95742244  0.54610202    -0.85200
Zr13       Zr  0.10066162  0.86031016  0.57280916     2.26400
Zr14       Zr  0.14058634  0.93894849  0.59620039     2.06300
Zr15       Zr  0.10166343  0.90568906  0.52868800     2.10000
Zr16       Zr  0.19075990  0.90352602  0.55430452     1.78800
O17         O  0.06352968  0.90259504  0.50257034    -0.94000
O18         O  0.24216152  0.91646946  0.57276121    -0.41800
O19         O  0.13788544  0.87055493  0.54737417    -0.78400
O20         O  0.15621471  0.88734350  0.57995445    -0.97100
O21         O  0.08605896  0.91154802  0.58938312    -0.90400
O22         O  0.06555308  0.89595901  0.55367200    -0.93300
C23         C  0.22077625  0.97603425  0.52998738     1.00500
C24         C  0.07995581  0.98931245  0.51663451     1.13400
C25         C  0.17035193  0.02235778  0.59765263     1.04200
O26         O  0.19366414  0.92130618  0.61207943    -0.95400
O27         O  0.12281279  0.89816219  0.61870935    -0.91200
O28         O  0.10112905  0.84961368  0.60470753    -0.84300
C29         C  0.10950656  0.86726083  0.61873170     1.10800
O30         O  0.03260439  0.00879300  0.57146929    -0.97400
Zr31       Zr  0.05199152  0.94758424  0.57040844     1.88900
O32         O  0.03914595  0.84819376  0.57844379    -0.74100
O33         O  0.11197183  0.97153174  0.62010331    -0.53300
O34         O  0.02408466  0.95595381  0.59932453    -0.98000
O35         O  0.00715764  0.96096845  0.54815564    -0.55200
O36         O  0.01069114  0.90019170  0.57486292    -0.74600
C37         C  0.01114275  0.86683728  0.57777004     0.97800
O38         O  0.12514613  0.80244597  0.57949000    -0.63400
O39         O  0.14632073  0.88213602  0.50885439    -0.58200
O40         O  0.07754410  0.81758448  0.55198774    -0.94900
O41         O  0.06886919  0.84777096  0.52619595    -0.93300
O42         O  0.21248316  0.86990575  0.52896094    -0.93700
O43         O  0.22039015  0.84882073  0.56222140    -0.92400
C44         C  0.06491674  0.81997107  0.53618810     1.16600
H45         H  0.16415090  0.94342381  0.52405160     0.32600
H46         H  0.16958356  0.87172074  0.58754609     0.43400
H47         H  0.04446045  0.88467086  0.54933446     0.36900
H48         H  0.10010437  0.99902113  0.58506915     0.33400
H49         H  0.26167727  0.90326604  0.56720151     0.25200
H50         H  0.08778215  0.96186081  0.62058886     0.31100
H51         H  0.99850488  0.95501880  0.59685127     0.37000
H52         H  0.23733050  0.87728223  0.52759584     0.31500
H53         H  0.13880161  0.85749712  0.50661282     0.30400
H54         H  0.03958055  0.90672206  0.50725894     0.32100
H55         H  0.98454096  0.95596697  0.55417157     0.31000
H56         H  0.20125260  0.83112512  0.56311093     0.35000
H57         H  0.10450248  0.78693791  0.58146463     0.27800
H58         H  0.16523981  0.06213009  0.54845542     0.32000
H59         H  0.00897897  0.00823004  0.57696178     0.34800
H60         H  0.14229347  0.89442920  0.49737141     0.27500
H61         H  0.13540015  0.79417282  0.56811448     0.40300
H62         H  0.18799714  0.92434748  0.62487252     0.30400
H63         H  0.24787291  0.94152077  0.57033914     0.38000
H64         H  0.00937711  0.94208874  0.53910887     0.29900
H65         H  0.12328515  0.96329840  0.63126643     0.29900
H66         H  0.12486824  0.06438486  0.55241788     0.30200
Zr67       Zr  0.28437036  0.12719109  0.69739869     2.17500
O68         O  0.22235379  0.12776826  0.70538391    -0.52200
O69         O  0.27953314  0.07894468  0.71965402    -0.75400
O70         O  0.24640652  0.10328750  0.67089056    -0.82200
O71         O  0.31452128  0.18389243  0.73564428    -0.83900
O72         O  0.28295798  0.09085621  0.64787671    -0.79500
O73         O  0.27004840  0.18133339  0.71601401    -0.91200
O74         O  0.33271744  0.05178334  0.72165436    -0.77100
O75         O  0.32398210  0.08499722  0.68461916    -0.86600
O76         O  0.33682857  0.12467911  0.71601585    -0.86300
O77         O  0.29899390  0.14918999  0.66823254    -0.73100
O78         O  0.31322468  0.18386112  0.69920277    -0.85200
Zr79       Zr  0.41570233  0.16407542  0.67542789     2.26400
Zr80       Zr  0.34128201  0.10801870  0.65616296     2.06300
Zr81       Zr  0.36637410  0.18110718  0.71729489     2.10000
Zr82       Zr  0.37515380  0.08255263  0.70318905     1.78800
O83         O  0.36100137  0.23861450  0.73145744    -0.94000
O84         O  0.37497710  0.02340915  0.69043165    -0.41800
O85         O  0.40461692  0.13896177  0.70421743    -0.78400
O86         O  0.39282077  0.10450129  0.67442614    -0.97100
O87         O  0.36349229  0.16588367  0.65743774    -0.90400
O88         O  0.37663893  0.20594423  0.68875586    -0.93300
C89         C  0.30052005  0.05554236  0.72623117     1.00500
C90         C  0.28526230  0.19569449  0.72987022     1.13400
C91         C  0.25212179  0.09242703  0.65442844     1.04200
O92         O  0.36531664  0.04878181  0.65368556    -0.95400
O93         O  0.37889647  0.13184295  0.63253844    -0.91200
O94         O  0.42935640  0.15282633  0.64478403    -0.84300
C95         C  0.41004191  0.14488905  0.63138694     1.10800
O96         O  0.26335113  0.21359831  0.66148456    -0.97400
Zr97       Zr  0.32442521  0.20650135  0.67078094     1.88900
O98         O  0.41958743  0.22146785  0.66149475    -0.74100
O99         O  0.32299243  0.09036701  0.62617846    -0.53300
O100        O  0.30681834  0.25231197  0.64974035    -0.98000
O101        O  0.32654033  0.25963635  0.68909776    -0.55200
O102        O  0.37026298  0.20453178  0.64961628    -0.74600
C103        C  0.39404448  0.22755531  0.65102679     0.97800
O104        O  0.47507825  0.14259049  0.67015880    -0.63400
O105        O  0.39156563  0.15502244  0.74412044    -0.58200
O106        O  0.45651266  0.19475280  0.69489995    -0.94900
O107        O  0.42487127  0.21217545  0.71893017    -0.93300
O108        O  0.40211034  0.08038764  0.73271595    -0.93700
O109        O  0.43157716  0.05254660  0.70476679    -0.92400
C110        C  0.45362872  0.21163970  0.70963127     1.16600
H111        H  0.33118301  0.11836404  0.72814492     0.32600
H112        H  0.41014576  0.08913374  0.66917879     0.43400
H113        H  0.38712973  0.22908022  0.68990253     0.36900
H114        H  0.27915694  0.15211879  0.66038272     0.33400
H115        H  0.37859535  0.00743066  0.70072731     0.25200
H116        H  0.32088121  0.11243493  0.61917561     0.31100
H117        H  0.31766584  0.27450056  0.65404646     0.37000
H118        H  0.39348866  0.05820640  0.73817424     0.31500
H119        H  0.41146436  0.17067012  0.74737626     0.30400
H120        H  0.36194115  0.25574137  0.72149546     0.32100
H121        H  0.30297663  0.27034124  0.68778115     0.31000
H122        H  0.44819840  0.06878370  0.69874927     0.35000
H123        H  0.48964984  0.16395381  0.66822115     0.27800
H124        H  0.21399526  0.10334565  0.70328026     0.32000
H125        H  0.25218525  0.22648588  0.67143949     0.34800
H126        H  0.37382608  0.15915735  0.75352039     0.27500
H127        H  0.48296258  0.13306105  0.68179533     0.40300
H128        H  0.34451750  0.03348791  0.65167618     0.30400
H129        H  0.35027382  0.01910481  0.68682339     0.38000
H130        H  0.34267882  0.27602381  0.68285224     0.29900
H131        H  0.34332549  0.07787962  0.62095447     0.29900
H132        H  0.21087992  0.14198043  0.69594660     0.30200
Zr133      Zr  0.39451083  0.48878309  0.55172244     2.17500
O134        O  0.39523348  0.55291892  0.54938888    -0.52200
O135        O  0.34544375  0.49774842  0.53033490    -0.75400
O136        O  0.43985321  0.50926682  0.52988040    -0.82200
O137        O  0.35333612  0.48288645  0.60011150    -0.83900
O138        O  0.44130850  0.46124834  0.51297124    -0.79500
O139        O  0.37249815  0.52271214  0.57975178    -0.91200
O140        O  0.32670237  0.44376115  0.52093720    -0.77100
O141        O  0.39822976  0.43988843  0.53095679    -0.86600
O142        O  0.34993062  0.44630832  0.55940603    -0.86300
O143        O  0.45342057  0.46182603  0.55259911    -0.73100
O144        O  0.40913366  0.46888762  0.58116379    -0.85200
Zr145      Zr  0.42694908  0.35579609  0.56968809     2.26400
Zr146      Zr  0.45534617  0.41195084  0.53182157     2.06300
Zr147      Zr  0.36574418  0.42543582  0.58851936     2.10000
Zr148      Zr  0.35418409  0.39853820  0.53848847     1.78800
O149        O  0.35028726  0.43566242  0.61964018    -0.94000
O150        O  0.36294218  0.38160029  0.50744608    -0.41800
O151        O  0.36790360  0.37767647  0.56785818    -0.78400
O152        O  0.41069110  0.37096067  0.53984861    -0.97100
O153        O  0.47009820  0.39758343  0.56131115    -0.90400
O154        O  0.42417983  0.40281929  0.59097019    -0.93300
C155        C  0.32639490  0.47742878  0.52036908     1.00500
C156        C  0.35859907  0.51476868  0.59535962     1.13400
C157        C  0.45346314  0.49155991  0.51689804     1.04200
O158        O  0.45400955  0.38906271  0.50147405    -0.95400
O159        O  0.48551061  0.35217513  0.53046278    -0.91200
O160        O  0.46056728  0.31617584  0.55114513    -0.84300
C161        C  0.48198886  0.32156776  0.53827980     1.10800
O162        O  0.47408954  0.50674281  0.58957337    -0.97400
Zr163      Zr  0.46680333  0.44455317  0.58221562     1.88900
O164        O  0.48508237  0.34504036  0.58171804    -0.74100
O165        O  0.51513196  0.43256643  0.52653040    -0.53300
O166        O  0.52472899  0.47147131  0.57931827    -0.98000
O167        O  0.46976149  0.44245631  0.61474623    -0.55200
O168        O  0.51010106  0.39895214  0.58550932    -0.74600
C169        C  0.51139214  0.36521268  0.58513831     0.97800
O170        O  0.40126539  0.29672036  0.56960804    -0.63400
O171        O  0.30325967  0.41228458  0.58529867    -0.58200
O172        O  0.40651293  0.33682013  0.59809556    -0.94900
O173        O  0.36701965  0.37642264  0.60889383    -0.93300
O174        O  0.29100675  0.39138023  0.54237940    -0.93700
O175        O  0.33154319  0.33883074  0.53459252    -0.92400
C176        C  0.38443325  0.34777421  0.60962876     1.16600
H177        H  0.32680021  0.45675228  0.55937662     0.32600
H178        H  0.41111232  0.35051852  0.53215660     0.43400
H179        H  0.43006448  0.39558597  0.60294075     0.36900
H180        H  0.47240820  0.47798512  0.54999313     0.33400
H181        H  0.33920936  0.38253892  0.50200240     0.25200
H182        H  0.52648270  0.43200698  0.53843139     0.31100
H183        H  0.52942530  0.47175044  0.56633512     0.37000
H184        H  0.28119046  0.39116449  0.53012205     0.31500
H185        H  0.30201009  0.39406780  0.57588402     0.30400
H186        H  0.32456549  0.43186697  0.62040360     0.32100
H187        H  0.48693355  0.46106924  0.61801929     0.31000
H188        H  0.33976289  0.32584786  0.54527473     0.35000
H189        H  0.39633268  0.29139455  0.55690762     0.27800
H190        H  0.39256864  0.55808419  0.53650236     0.32000
H191        H  0.46576890  0.51953601  0.57884381     0.34800
H192        H  0.29699492  0.39931323  0.59631362     0.27500
H193        H  0.42061474  0.28061168  0.57298515     0.40300
H194        H  0.47112629  0.40380909  0.49487080     0.30400
H195        H  0.37577657  0.40165479  0.50200746     0.38000
H196        H  0.48199892  0.42012227  0.61756752     0.29900
H197        H  0.52641960  0.41319997  0.51982935     0.29900
H198        H  0.41966681  0.55998155  0.55232778     0.30200
Zr199      Zr  0.25423119  0.63374097  0.69412468     2.17500
O200        O  0.31775938  0.63726864  0.69804514    -0.52200
O201        O  0.25404851  0.58281462  0.71506439    -0.75400
O202        O  0.26981026  0.67223714  0.72045753    -0.82200
O203        O  0.26118109  0.60900803  0.64224861    -0.83900
O204        O  0.21942676  0.67417737  0.73625477    -0.79500
O205        O  0.29148637  0.60599930  0.66843509    -0.91200
O206        O  0.20021129  0.55655544  0.71361187    -0.77100
O207        O  0.19985287  0.62447969  0.70996049    -0.86600
O208        O  0.21733002  0.59735229  0.67589284    -0.86300
O209        O  0.22487663  0.69071217  0.69852484    -0.73100
O210        O  0.24318554  0.66666850  0.66706384    -0.85200
Zr211      Zr  0.12650785  0.67501669  0.67061928     2.26400
Zr212      Zr  0.17116086  0.68029567  0.71513949     2.06300
Zr213      Zr  0.20467176  0.63060649  0.64940737     2.10000
Zr214      Zr  0.16434520  0.58702178  0.69196219     1.78800
O215        O  0.23358891  0.65026847  0.62219944    -0.94000
O216        O  0.12437444  0.57084919  0.71598917    -0.41800
O217        O  0.15153631  0.61826177  0.66495966    -0.78400
O218        O  0.13495436  0.64199642  0.69754247    -0.97100
O219        O  0.16266675  0.71197241  0.68841508    -0.90400
O220        O  0.17905139  0.68679060  0.65428855    -0.93300
C221        C  0.23130868  0.55936195  0.72006328     1.00500
C222        C  0.28857440  0.60077127  0.65103675     1.13400
C223        C  0.25105081  0.68441425  0.73358179     1.04200
O224        O  0.14261284  0.65255234  0.74061043    -0.95400
O225        O  0.11276896  0.71083067  0.71674554    -0.91200
O226        O  0.08376660  0.70072054  0.69064599    -0.84300
C227        C  0.08546067  0.71384904  0.70639947     1.10800
O228        O  0.27626183  0.74151464  0.67012497    -0.97400
Zr229      Zr  0.21516907  0.72244427  0.67217702     1.88900
O230        O  0.11653123  0.73657444  0.66463804    -0.74100
O231        O  0.17666592  0.73702248  0.73019447    -0.53300
O232        O  0.23284873  0.77209983  0.69084791    -0.98000
O233        O  0.22436704  0.74648436  0.64229515    -0.55200
O234        O  0.16835942  0.76459998  0.66946261    -0.74600
C235        C  0.13541552  0.76452064  0.66599898     0.97800
O236        O  0.06927198  0.64907779  0.66365850    -0.63400
O237        O  0.18960837  0.57238518  0.63787832    -0.58200
O238        O  0.11679137  0.67149641  0.63882424    -0.94900
O239        O  0.16368828  0.64476489  0.62592327    -0.93300
O240        O  0.17783523  0.53082669  0.67779415    -0.93700
O241        O  0.11281676  0.55603366  0.68049006    -0.92400
C242        C  0.13395332  0.66040106  0.62523259     1.16600
H243        H  0.22889050  0.57541547  0.67308508     0.32600
H244        H  0.11269368  0.63783399  0.70336399     0.43400
H245        H  0.17487016  0.69975742  0.64342954     0.36900
H246        H  0.23834284  0.70910284  0.70419394     0.33400
H247        H  0.12563000  0.54479507  0.71665504     0.25200
H248        H  0.17715540  0.73128004  0.74308306     0.31100
H249        H  0.21290085  0.77565610  0.69909110     0.37000
H250        H  0.17691471  0.51323914  0.68755590     0.31500
H251        H  0.18859886  0.57549958  0.62476716     0.30400
H252        H  0.22980198  0.67609095  0.62189754     0.32100
H253        H  0.23852288  0.76815348  0.64415597     0.31000
H254        H  0.09303454  0.57241148  0.68255948     0.35000
H255        H  0.07439146  0.62401707  0.66106821     0.27800
H256        H  0.32207603  0.63029051  0.71059591     0.32000
H257        H  0.29020574  0.71983058  0.67201885     0.34800
H258        H  0.21084816  0.55790921  0.63992950     0.27500
H259        H  0.05622229  0.64835721  0.67506088     0.40300
H260        H  0.16074633  0.63696626  0.74584878     0.30400
H261        H  0.13623487  0.57911673  0.72700797     0.38000
H262        H  0.20115132  0.75540422  0.63839461     0.29900
H263        H  0.20069015  0.74545852  0.72748309     0.29900
H264        H  0.32335964  0.66278831  0.69761284     0.30200
Zr265      Zr  0.64787907  0.02252577  0.55259419     2.17500
O266        O  0.64972071  0.95884118  0.54819458    -0.52200
O267        O  0.69962586  0.02401777  0.53269476    -0.75400
O268        O  0.61064829  0.00455544  0.52635557    -0.82200
O269        O  0.67254601  0.01730220  0.60409922    -0.83900
O270        O  0.60851543  0.05563206  0.51172087    -0.79500
O271        O  0.67244860  0.98462988  0.57875137    -0.91200
O272        O  0.72041338  0.08037142  0.53164449    -0.77100
O273        O  0.65090469  0.07755733  0.53616731    -0.86600
O274        O  0.68356270  0.06262104  0.56957795    -0.86300
O275        O  0.58868036  0.04731112  0.54879843    -0.73100
O276        O  0.61807664  0.03165999  0.58052785    -0.85200
Zr277      Zr  0.59787073  0.14642630  0.57625455     2.26400
Zr278      Zr  0.59274929  0.10258039  0.53210096     2.06300
Zr279      Zr  0.65230425  0.07445473  0.59668696     2.10000
Zr280      Zr  0.68760602  0.11599424  0.55285732     1.78800
O281        O  0.65096463  0.05221971  0.62717707    -0.94000
O282        O  0.69821242  0.15499672  0.52758976    -0.41800
O283        O  0.65770094  0.12801425  0.58042917    -0.78400
O284        O  0.62994258  0.14085474  0.54891303    -0.97100
O285        O  0.56270847  0.10688103  0.55947962    -0.90400
O286        O  0.59305343  0.09310313  0.59298275    -0.93300
C287        C  0.72062598  0.04798666  0.52662765     1.00500
C288        C  0.67829270  0.98846430  0.59600094     1.13400
C289        C  0.59714793  0.02423549  0.51396316     1.04200
O290        O  0.60867121  0.12958698  0.50376777    -0.95400
O291        O  0.56485824  0.16346948  0.53017612    -0.91200
O292        O  0.57317440  0.19068633  0.55685192    -0.84300
C293        C  0.56201056  0.19073346  0.54071855     1.10800
O294        O  0.55075656  0.98962493  0.57905033    -0.97400
Zr295      Zr  0.55961716  0.05309305  0.57607774     1.88900
O296        O  0.53500269  0.14836127  0.58092091    -0.74100
O297        O  0.53434657  0.08850430  0.52071620    -0.53300
O298        O  0.51063625  0.03003076  0.55850477    -0.98000
O299        O  0.54113039  0.04106712  0.60661950    -0.55200
O300        O  0.51209613  0.09306784  0.58095569    -0.74600
C301        C  0.50920301  0.12655532  0.58208085     0.97800
O302        O  0.61348284  0.20762130  0.58256982    -0.63400
O303        O  0.71134758  0.09600377  0.60321272    -0.58200
O304        O  0.60109088  0.15680072  0.60799093    -0.94900
O305        O  0.63334103  0.11299493  0.62045727    -0.93300
O306        O  0.74513499  0.10990393  0.56687840    -0.93700
O307        O  0.71356728  0.17242296  0.56128969    -0.92400
C308        C  0.61441931  0.14078435  0.62145476     1.16600
H309        H  0.70642863  0.05262674  0.57195401     0.32600
H310        H  0.63210495  0.16349162  0.54308734     0.43400
H311        H  0.58028413  0.09566373  0.60399261     0.36900
H312        H  0.57133374  0.03213116  0.54337227     0.33400
H313        H  0.72349972  0.15219914  0.52486509     0.25200
H314        H  0.51808517  0.10137511  0.52865974     0.31100
H315        H  0.49227848  0.02414119  0.56736745     0.37000
H316        H  0.76215678  0.11491502  0.55722473     0.31500
H317        H  0.70831952  0.12136990  0.60592629     0.30400
H318        H  0.62671781  0.04314896  0.62880111     0.32100
H319        H  0.55874396  0.02426164  0.61132189     0.31000
H320        H  0.69350687  0.18666856  0.56554364     0.35000
H321        H  0.59554330  0.21620781  0.59105648     0.27800
H322        H  0.65462277  0.95538114  0.53534728     0.32000
H323        H  0.57053775  0.97894381  0.57244225     0.34800
H324        H  0.71734264  0.08519090  0.61485386     0.27500
H325        H  0.63555554  0.20647332  0.58958084     0.40300
H326        H  0.62240505  0.15083997  0.50709172     0.30400
H327        H  0.68589852  0.14351536  0.51747341     0.38000
H328        H  0.51923207  0.02704634  0.60542709     0.29900
H329        H  0.53288250  0.10123179  0.50919851     0.29900
H330        H  0.62514939  0.95075990  0.54979842     0.30200
Zr331      Zr  0.78966756  0.87647257  0.69405727     2.17500
O332        O  0.72652806  0.87175800  0.69900512    -0.52200
O333        O  0.78281932  0.92821215  0.71369042    -0.75400
O334        O  0.77192303  0.83583425  0.71889745    -0.82200
O335        O  0.79040799  0.91120916  0.64381465    -0.83900
O336        O  0.82076564  0.83217573  0.73584967    -0.79500
O337        O  0.75362148  0.89965503  0.66689877    -0.91200
O338        O  0.83462496  0.95831986  0.71475386    -0.77100
O339        O  0.84117596  0.88368538  0.71270555    -0.86600
O340        O  0.82829176  0.91740838  0.67969476    -0.86300
O341        O  0.81926550  0.81934722  0.69773384    -0.73100
O342        O  0.80538025  0.84941802  0.66615650    -0.85200
Zr343      Zr  0.92093527  0.84141451  0.67377736     2.26400
Zr344      Zr  0.87124873  0.82792103  0.71620492     2.06300
Zr345      Zr  0.84614727  0.88959077  0.65247843     2.10000
Zr346      Zr  0.87858172  0.92504626  0.69839899     1.78800
O347        O  0.82441247  0.88017876  0.62227987    -0.94000
O348        O  0.90260394  0.93406439  0.72825491    -0.41800
O349        O  0.89680868  0.89943949  0.67053056    -0.78400
O350        O  0.90861536  0.86965096  0.70171625    -0.97100
O351        O  0.88324858  0.80091900  0.68855049    -0.90400
O352        O  0.87018969  0.83212428  0.65560765    -0.93300
C353        C  0.80235133  0.95389754  0.71917074     1.00500
C354        C  0.75975717  0.91064884  0.65050039     1.13400
C355        C  0.78942437  0.82216210  0.73210416     1.04200
O356        O  0.89916786  0.85251390  0.74272707    -0.95400
O357        O  0.92939669  0.79645352  0.71751212    -0.91200
O358        O  0.96273116  0.81599634  0.69439848    -0.84300
C359        C  0.95863272  0.79758261  0.70857025     1.10800
O360        O  0.77090731  0.77657704  0.66674451    -0.97400
Zr361      Zr  0.83255169  0.79283436  0.67038043     1.88900
O362        O  0.93221101  0.78071161  0.66654209    -0.74100
O363        O  0.86515021  0.77026682  0.73027375    -0.53300
O364        O  0.81592694  0.73974812  0.68670394    -0.98000
O365        O  0.82213078  0.77266413  0.63990122    -0.55200
O366        O  0.87998992  0.75178177  0.66553736    -0.74600
C367        C  0.91364115  0.75286177  0.66444924     0.97800
O368        O  0.97919816  0.86569281  0.66788983    -0.63400
O369        O  0.86484141  0.94971815  0.64591898    -0.58200
O370        O  0.93392382  0.84716459  0.64229429    -0.94900
O371        O  0.88831490  0.87623967  0.62963853    -0.93300
O372        O  0.88016902  0.98128801  0.68266318    -0.93700
O373        O  0.93568492  0.95432050  0.69879319    -0.92400
C374        C  0.91752523  0.85986100  0.62875107     1.16600
H375        H  0.81671710  0.93961283  0.67742194     0.32600
H376        H  0.93001933  0.87305586  0.70848612     0.43400
H377        H  0.87504017  0.82050870  0.64445463     0.36900
H378        H  0.80524105  0.80028372  0.70239974     0.33400
H379        H  0.90065975  0.95975324  0.73041522     0.25200
H380        H  0.86523605  0.77504890  0.74325696     0.31100
H381        H  0.83577739  0.73549120  0.69499711     0.37000
H382        H  0.86008614  0.99486228  0.68740520     0.31500
H383        H  0.87785960  0.94795342  0.63454066     0.30400
H384        H  0.81442523  0.85602431  0.62241294     0.32100
H385        H  0.84524160  0.76462614  0.63547331     0.31000
H386        H  0.94861649  0.94373189  0.68869092     0.35000
H387        H  0.98819531  0.87364663  0.67963708     0.27800
H388        H  0.71707986  0.85934481  0.68839084     0.32000
H389        H  0.76132273  0.79388603  0.65812741     0.34800
H390        H  0.84292400  0.96227769  0.64274727     0.27500
H391        H  0.99387247  0.84507056  0.66478694     0.40300
H392        H  0.88496916  0.84350024  0.75280864     0.30400
H393        H  0.88501552  0.92339032  0.73635562     0.38000
H394        H  0.81714178  0.79437226  0.63302353     0.29900
H395        H  0.84089947  0.76241999  0.72750591     0.29900
H396        H  0.71761323  0.89618296  0.69798234     0.30200
Zr397      Zr  0.89417400  0.52580182  0.55191318     2.17500
O398        O  0.89149660  0.46369493  0.54373547    -0.52200
O399        O  0.84293274  0.52442079  0.53143053    -0.75400
O400        O  0.86713403  0.49079264  0.57883118    -0.82200
O401        O  0.94383537  0.55471208  0.51124394    -0.83900
O402        O  0.86268482  0.52673180  0.60295666    -0.79500
O403        O  0.94571385  0.51112348  0.53140870    -0.91200
O404        O  0.81529916  0.57742245  0.53370193    -0.77100
O405        O  0.85986731  0.56490486  0.56962151    -0.86600
O406        O  0.88608389  0.57948382  0.53449143    -0.86300
O407        O  0.92766816  0.53686460  0.57869448    -0.73100
O408        O  0.94848495  0.55628360  0.54659061    -0.85200
Zr409      Zr  0.94224639  0.65338691  0.57260226     2.26400
Zr410      Zr  0.89432532  0.57871898  0.59553318     2.06300
Zr411      Zr  0.94092701  0.60865019  0.52866192     2.10000
Zr412      Zr  0.85054535  0.61675358  0.55231855     1.78800
O413        O  0.98833449  0.61063790  0.50700283    -0.94000
O414        O  0.79615308  0.60895104  0.56904561    -0.41800
O415        O  0.90586652  0.64620709  0.54654306    -0.78400
O416        O  0.88419649  0.63103559  0.57865745    -0.97100
O417        O  0.95126390  0.60155399  0.58978017    -0.90400
O418        O  0.97578617  0.61476790  0.55444416    -0.93300
C419        C  0.81837904  0.54631562  0.52711490     1.00500
C420        C  0.95771494  0.52614474  0.51691758     1.13400
C421        C  0.85763948  0.49696259  0.59551360     1.04200
O422        O  0.84183153  0.60311635  0.60933669    -0.95400
O423        O  0.91584312  0.61843910  0.61821321    -0.91200
O424        O  0.94508913  0.66278336  0.60442277    -0.84300
C425        C  0.93385167  0.64696038  0.61844973     1.10800
O426        O  0.00102114  0.50094680  0.57458955    -0.97400
Zr427      Zr  0.98403249  0.56259645  0.57196856     1.88900
O428        O  0.00480945  0.66019009  0.57760552    -0.74100
O429        O  0.91447466  0.54524959  0.62138632    -0.53300
O430        O  0.00422006  0.55022735  0.60221107    -0.98000
O431        O  0.02824529  0.54149679  0.55116012    -0.55200
O432        O  0.02945099  0.60571051  0.57727677    -0.74600
C433        C  0.03129604  0.63937901  0.57849546     0.97800
O434        O  0.91946923  0.71170058  0.57970024    -0.63400
O435        O  0.90283364  0.63266129  0.50551530    -0.58200
O436        O  0.96853774  0.69589494  0.55266384    -0.94900
O437        O  0.97396240  0.66641830  0.52645059    -0.93300
O438        O  0.83676509  0.65111164  0.52575018    -0.93700
O439        O  0.82006552  0.67152007  0.55904299    -0.92400
C440        C  0.97989586  0.69356270  0.53666098     1.16600
H441        H  0.87665630  0.57553164  0.52271958     0.32600
H442        H  0.87157395  0.64795881  0.58580277     0.43400
H443        H  0.99779432  0.62431883  0.55025426     0.36900
H444        H  0.93085802  0.51541796  0.58546503     0.33400
H445        H  0.77719307  0.61386173  0.56031390     0.25200
H446        H  0.93851418  0.55406723  0.62391087     0.31100
H447        H  0.00568747  0.57350874  0.60815983     0.37000
H448        H  0.81176569  0.64580375  0.52313883     0.31500
H449        H  0.91741974  0.65080116  0.49952863     0.30400
H450        H  0.00939866  0.60312593  0.51378719     0.32100
H451        H  0.05078239  0.54321605  0.55773110     0.31000
H452        H  0.83894345  0.68815911  0.56261337     0.35000
H453        H  0.94038676  0.72725705  0.58050687     0.27800
H454        H  0.86696511  0.45642738  0.54621997     0.32000
H455        H  0.98224790  0.48779449  0.56823843     0.34800
H456        H  0.90063839  0.61346595  0.49661931     0.27500
H457        H  0.90708789  0.71938149  0.56873295     0.40300
H458        H  0.82960919  0.58274159  0.61482067     0.30400
H459        H  0.79421987  0.58327966  0.57129033     0.38000
H460        H  0.02969299  0.56005026  0.54188385     0.29900
H461        H  0.90012086  0.55375830  0.63149313     0.29900
H462        H  0.90569946  0.45157913  0.55296574     0.30200
Zr463      Zr  0.74532744  0.38188687  0.69339764     2.17500
O464        O  0.80790560  0.38312908  0.70035592    -0.52200
O465        O  0.74821026  0.43426164  0.71303221    -0.75400
O466        O  0.77931088  0.40714812  0.66598382    -0.82200
O467        O  0.71876176  0.33755733  0.73568881    -0.83900
O468        O  0.74395898  0.40855712  0.64153460    -0.79500
O469        O  0.76180463  0.33456283  0.71549515    -0.91200
O470        O  0.69403614  0.45948693  0.71334110    -0.77100
O471        O  0.70523040  0.41524489  0.67574425    -0.86600
O472        O  0.69293653  0.38916498  0.71153343    -0.86300
O473        O  0.73364303  0.34622438  0.66740391    -0.73100
O474        O  0.71668590  0.32661006  0.70000420    -0.85200
Zr475      Zr  0.61788346  0.33234651  0.67491797     2.26400
Zr476      Zr  0.69138989  0.37875076  0.65038622     2.06300
Zr477      Zr  0.66494899  0.33370161  0.71833510     2.10000
Zr478      Zr  0.65483979  0.42452181  0.69405953     1.78800
O479        O  0.67099636  0.28173718  0.73718823    -0.94000
O480        O  0.66076597  0.48017291  0.67806274    -0.41800
O481        O  0.62659601  0.36890896  0.70073925    -0.78400
O482        O  0.64036208  0.39005016  0.66790490    -0.97100
O483        O  0.66871189  0.32213195  0.65739581    -0.90400
O484        O  0.65679057  0.29836216  0.69284077    -0.93300
C485        C  0.72615738  0.45743614  0.71872810     1.00500
C486        C  0.74737887  0.32377757  0.73025668     1.13400
C487        C  0.77351563  0.41460746  0.64901656     1.04200
O488        O  0.66962143  0.43074156  0.63488055    -0.95400
O489        O  0.64908556  0.35698788  0.62893184    -0.91200
O490        O  0.60454687  0.32979743  0.64363546    -0.84300
C491        C  0.61986842  0.34008238  0.62936703     1.10800
O492        O  0.76936982  0.27120098  0.67294588    -0.97400
Zr493      Zr  0.70835513  0.28985104  0.67523203     1.88900
O494        O  0.60985665  0.26944980  0.66998424    -0.74100
O495        O  0.71803159  0.35154078  0.62421154    -0.53300
O496        O  0.72315544  0.26486767  0.64630263    -0.98000
O497        O  0.72603728  0.24675224  0.69761360    -0.55200
O498        O  0.66444381  0.24537474  0.66937422    -0.74600
C499        C  0.63084090  0.24313051  0.66857862     0.97800
O500        O  0.56008899  0.35598357  0.66763690    -0.63400
O501        O  0.64041753  0.36516817  0.74373869    -0.58200
O502        O  0.57538507  0.31077252  0.69589822    -0.94900
O503        O  0.60682743  0.30168150  0.72127880    -0.93300
O504        O  0.61822831  0.43616018  0.71999302    -0.93700
O505        O  0.59985918  0.45435218  0.68706634    -0.92400
C506        C  0.57853249  0.29821125  0.71162210     1.16600
H507        H  0.69786857  0.39883841  0.72315356     0.32600
H508        H  0.62336347  0.40248193  0.66069115     0.43400
H509        H  0.64706462  0.27637727  0.69706577     0.36900
H510        H  0.75481481  0.34273349  0.66056615     0.33400
H511        H  0.68464950  0.48887542  0.68103324     0.25200
H512        H  0.71896784  0.37031776  0.61503170     0.31100
H513        H  0.71342063  0.28163026  0.63746512     0.37000
H514        H  0.62759498  0.45834346  0.72514129     0.31500
H515        H  0.64997670  0.38942827  0.74298191     0.30400
H516        H  0.66463778  0.26153838  0.72944628     0.32100
H517        H  0.72755673  0.22413177  0.69108372     0.31000
H518        H  0.58600197  0.43711912  0.68001432     0.35000
H519        H  0.54394714  0.33541940  0.66757650     0.27800
H520        H  0.81449142  0.40841330  0.69997840     0.32000
H521        H  0.78337667  0.29277356  0.67529692     0.34800
H522        H  0.61512896  0.36765288  0.74085313     0.27500
H523        H  0.55323382  0.36987452  0.67824872     0.40300
H524        H  0.67568671  0.42672814  0.62220438     0.30400
H525        H  0.66216430  0.47338746  0.66533210     0.38000
H526        H  0.70531570  0.24397903  0.70543975     0.29900
H527        H  0.74286281  0.34691143  0.62740195     0.29900
H528        H  0.81947702  0.37261785  0.68981700     0.30200
Zr529      Zr  0.79060422  0.63995257  0.19273012     2.17500
O530        O  0.72760055  0.63821923  0.19855275    -0.52200
O531        O  0.78579299  0.58983894  0.21425123    -0.75400
O532        O  0.75542685  0.61511899  0.16553053    -0.82200
O533        O  0.81701212  0.68817168  0.23347082    -0.83900
O534        O  0.78944206  0.61842211  0.14087917    -0.79500
O535        O  0.77425776  0.69032307  0.21295605    -0.91200
O536        O  0.83883934  0.56226822  0.21599995    -0.77100
O537        O  0.83000842  0.60070594  0.17804820    -0.86600
O538        O  0.84204605  0.63345361  0.21180129    -0.86300
O539        O  0.80545866  0.66888651  0.16494683    -0.73100
O540        O  0.82017554  0.69612803  0.19716880    -0.85200
Zr541      Zr  0.92217567  0.67947585  0.17443985     2.26400
Zr542      Zr  0.84783343  0.63010201  0.15131862     2.06300
Zr543      Zr  0.87101096  0.68910127  0.21642614     2.10000
Zr544      Zr  0.88004290  0.59346980  0.19703158     1.78800
O545        O  0.86328331  0.74636528  0.23056705    -0.94000
O546        O  0.87173746  0.53559479  0.18345386    -0.41800
O547        O  0.90946382  0.64910806  0.20179646    -0.78400
O548        O  0.89834863  0.62146713  0.16979868    -0.97100
O549        O  0.87267811  0.68728988  0.15553411    -0.90400
O550        O  0.88284688  0.71791602  0.18951738    -0.93300
C551        C  0.80666337  0.56598221  0.22063585     1.00500
C552        C  0.78844921  0.70168093  0.22767890     1.13400
C553        C  0.76022049  0.61094975  0.14823703     1.04200
O554        O  0.86850934  0.56948281  0.14922024    -0.95400
O555        O  0.88342912  0.65965009  0.12922994    -0.91200
O556        O  0.93409811  0.67647669  0.14284374    -0.84300
C557        C  0.91504068  0.67129657  0.12892688     1.10800
O558        O  0.81288656  0.72100753  0.13928256    -0.97400
Zr559      Zr  0.83348712  0.72499223  0.17008577     1.88900
O560        O  0.93476695  0.74093373  0.16839928    -0.74100
O561        O  0.84462498  0.61054507  0.12023067    -0.53300
O562        O  0.81482040  0.78419997  0.16135430    -0.98000
O563        O  0.78492341  0.74789960  0.18764049    -0.55200
O564        O  0.88124189  0.76678271  0.16645460    -0.74600
C565        C  0.91492807  0.76795915  0.16660384     0.97800
O566        O  0.97962536  0.65396287  0.16841449    -0.63400
O567        O  0.89413750  0.66315179  0.24375000    -0.58200
O568        O  0.96355722  0.70310362  0.19572078    -0.94900
O569        O  0.92983274  0.71991661  0.21914974    -0.93300
O570        O  0.91143351  0.58178135  0.22478143    -0.93700
O571        O  0.93568970  0.56366854  0.19184776    -0.92400
C572        C  0.95922825  0.72002470  0.21030820     1.16600
H573        H  0.83633462  0.62565427  0.22369554     0.32600
H574        H  0.91577859  0.60732076  0.16382004     0.43400
H575        H  0.89259072  0.73986440  0.19376251     0.36900
H576        H  0.78470753  0.67319032  0.15785296     0.33400
H577        H  0.87921162  0.51861389  0.19275504     0.25200
H578        H  0.83163135  0.58785200  0.12017429     0.31100
H579        H  0.82557927  0.78866991  0.14954629     0.37000
H580        H  0.90686984  0.55655032  0.22734901     0.31500
H581        H  0.91985131  0.66708346  0.24315959     0.30400
H582        H  0.87574269  0.74443327  0.24214375     0.32100
H583        H  0.76648644  0.75481229  0.17897554     0.31000
H584        H  0.95364748  0.58257562  0.19273046     0.35000
H585        H  0.99629263  0.67409932  0.16850870     0.27800
H586        H  0.72535437  0.64199070  0.21156924     0.32000
H587        H  0.79006551  0.73347141  0.13912077     0.34800
H588        H  0.88608026  0.67911010  0.25334763     0.27500
H589        H  0.98543016  0.64026810  0.17927649     0.40300
H590        H  0.88821069  0.57027653  0.14061973     0.30400
H591        H  0.84595012  0.53230233  0.18261781     0.38000
H592        H  0.79346848  0.77025211  0.19298129     0.29900
H593        H  0.82902441  0.62738186  0.11395824     0.29900
H594        H  0.72083926  0.61319645  0.19684584     0.30200
Zr595      Zr  0.64448252  0.49580555  0.05132214     2.17500
O596        O  0.64400579  0.55894428  0.04531244    -0.52200
O597        O  0.69571427  0.49908119  0.03098111    -0.75400
O598        O  0.67007441  0.53272299  0.07767202    -0.82200
O599        O  0.59492675  0.46460346  0.01016139    -0.83900
O600        O  0.67078685  0.49950984  0.10291322    -0.79500
O601        O  0.59388215  0.50892667  0.03007000    -0.91200
O602        O  0.72752412  0.44887419  0.03497470    -0.77100
O603        O  0.68060263  0.45879297  0.06934767    -0.86600
O604        O  0.65514610  0.44249957  0.03410548    -0.86300
O605        O  0.61092668  0.48296647  0.07787249    -0.73100
O606        O  0.59117570  0.46367270  0.04556244    -0.85200
Zr607      Zr  0.60301249  0.36585572  0.07181066     2.26400
Zr608      Zr  0.64652262  0.44356226  0.09506684     2.06300
Zr609      Zr  0.60133628  0.41138855  0.02794095     2.10000
Zr610      Zr  0.69241205  0.40719262  0.05228739     1.78800
O611        O  0.55286370  0.40924543  0.00666131    -0.94000
O612        O  0.74408813  0.41380025  0.07133619    -0.41800
O613        O  0.63855305  0.37554664  0.04581773    -0.78400
O614        O  0.65952396  0.39150789  0.07851429    -0.97100
O615        O  0.59094854  0.41744109  0.08889199    -0.90400
O616        O  0.56712462  0.40236025  0.05361714    -0.93300
C617        C  0.72230668  0.47903940  0.02761516     1.00500
C618        C  0.58178255  0.49365210  0.01567529     1.13400
C619        C  0.67710037  0.52837820  0.09478457     1.04200
O620        O  0.70362638  0.42644221  0.10696796    -0.95400
O621        O  0.62723835  0.40145413  0.11717680    -0.91200
O622        O  0.60141084  0.35488801  0.10334550    -0.84300
C623        C  0.61135865  0.37162812  0.11730788     1.10800
O624        O  0.53408643  0.51383943  0.07496254    -0.97400
Zr625      Zr  0.55604625  0.45418921  0.07071560     1.88900
O626        O  0.54111009  0.35444015  0.07674278    -0.74100
O627        O  0.62817656  0.47216816  0.12265987    -0.53300
O628        O  0.52621849  0.46679378  0.09867415    -0.98000
O629        O  0.51558917  0.46987313  0.04675905    -0.55200
O630        O  0.51416585  0.40775774  0.07629795    -0.74600
C631        C  0.51374223  0.37403709  0.07750698     0.97800
O632        O  0.62799339  0.30826432  0.07870798    -0.63400
O633        O  0.64094973  0.38946943  0.00506080    -0.58200
O634        O  0.58049340  0.32196317  0.05141705    -0.94900
O635        O  0.57036709  0.35230673  0.02577903    -0.93300
O636        O  0.71367338  0.37748135  0.02562903    -0.93700
O637        O  0.72001307  0.35035886  0.05791181    -0.92400
C638        C  0.56745209  0.32424208  0.03569981     1.16600
H639        H  0.66489642  0.44679290  0.02244193     0.32600
H640        H  0.67301809  0.37548747  0.08582740     0.43400
H641        H  0.54570882  0.39152054  0.04937848     0.36900
H642        H  0.60642368  0.50427585  0.08453109     0.33400
H643        H  0.76402818  0.40642336  0.06376160     0.25200
H644        H  0.60360793  0.46440970  0.12462325     0.31100
H645        H  0.54452220  0.46379448  0.10796167     0.37000
H646        H  0.73947162  0.38111260  0.02577069     0.31500
H647        H  0.63960631  0.36347153  0.00617177     0.30400
H648        H  0.56329579  0.40015973  0.99549362     0.32100
H649        H  0.51173569  0.44771605  0.04003557     0.31000
H650        H  0.70041992  0.33460593  0.06145646     0.35000
H651        H  0.63818808  0.29991641  0.06733314     0.27800
H652        H  0.61976563  0.56652702  0.04810441     0.32000
H653        H  0.55197615  0.52920270  0.06931734     0.34800
H654        H  0.62902187  0.39478435  0.99361986     0.27500
H655        H  0.64869389  0.31332214  0.08634146     0.40300
H656        H  0.69832137  0.40889584  0.11638023     0.30400
H657        H  0.74735438  0.43957489  0.07273883     0.38000
H658        H  0.49289150  0.47435673  0.05275236     0.29900
H659        H  0.64189698  0.46078231  0.13231460     0.29900
H660        H  0.64577659  0.56089580  0.03216792     0.30200
Zr661      Zr  0.90044476  0.99055844  0.05364213     2.17500
O662        O  0.89789030  0.05409913  0.04894442    -0.52200
O663        O  0.84822434  0.99103809  0.03361161    -0.75400
O664        O  0.93810833  0.00848279  0.02784788    -0.82200
O665        O  0.88332271  0.99851165  0.10586947    -0.83900
O666        O  0.94163025  0.95851422  0.01163036    -0.79500
O667        O  0.87741826  0.02849975  0.07982609    -0.91200
O668        O  0.82225897  0.93696630  0.03453320    -0.77100
O669        O  0.89320439  0.93649375  0.03700158    -0.86600
O670        O  0.86414742  0.95212001  0.07107076    -0.86300
O671        O  0.95830176  0.96337320  0.04917315    -0.73100
O672        O  0.93251647  0.97986184  0.08098677    -0.85200
Zr673      Zr  0.94527376  0.86370526  0.07625272     2.26400
Zr674      Zr  0.94986622  0.90943006  0.03212625     2.06300
Zr675      Zr  0.89695300  0.93922564  0.09770697     2.10000
Zr676      Zr  0.85635142  0.89919262  0.05422370     1.78800
O677        O  0.89656626  0.95985108  0.12852325    -0.94000
O678        O  0.84221392  0.86448953  0.02777020    -0.41800
O679        O  0.88713773  0.88588123  0.08152980    -0.78400
O680        O  0.91241598  0.87191321  0.04922672    -0.97100
O681        O  0.98127190  0.90163260  0.05902628    -0.90400
O682        O  0.95463387  0.91643168  0.09305893    -0.93300
C683        C  0.82433206  0.96870991  0.02866111     1.00500
C684        C  0.87463823  0.02617535  0.09729919     1.13400
C685        C  0.95088001  0.99045647  0.01465667     1.04200
O686        O  0.92363856  0.88210526  0.00586169    -0.95400
O687        O  0.97949619  0.85017758  0.03011850    -0.91200
O688        O  0.96880328  0.82055428  0.05594348    -0.84300
C689        C  0.98183946  0.82236334  0.04023080     1.10800
O690        O  0.00605789  0.01625995  0.07755718    -0.97400
Zr691      Zr  0.98929984  0.95431028  0.07578628     1.88900
O692        O  0.00762443  0.85574417  0.08057166    -0.74100
O693        O  0.00673996  0.91591228  0.01758618    -0.53300
O694        O  0.03936861  0.97240604  0.05772689    -0.98000
O695        O  0.01113065  0.96692641  0.10579493    -0.55200
O696        O  0.03350373  0.90956729  0.07920875    -0.74600
C697        C  0.03469584  0.87595494  0.08065874     0.97800
O698        O  0.92590224  0.80335343  0.08197000    -0.63400
O699        O  0.83700235  0.92032948  0.10397562    -0.58200
O700        O  0.94356886  0.85329542  0.10805582    -0.94900
O701        O  0.91687348  0.90011712  0.12107405    -0.93300
O702        O  0.80037680  0.90524370  0.06958970    -0.93700
O703        O  0.83098663  0.84145362  0.06069025    -0.92400
C704        C  0.93336810  0.87077212  0.12173479     1.16600
H705        H  0.84191949  0.96312703  0.07376222     0.32600
H706        H  0.90900349  0.84962791  0.04320479     0.43400
H707        H  0.96834696  0.91285099  0.10371702     0.36900
H708        H  0.97632403  0.97759985  0.04374400     0.33400
H709        H  0.81679684  0.86832120  0.02568126     0.25200
H710        H  0.00160394  0.91399938  0.00466368     0.31100
H711        H  0.04110252  0.95416754  0.04833134     0.37000
H712        H  0.78270730  0.89555119  0.06116821     0.31500
H713        H  0.83959323  0.90115413  0.11285547     0.30400
H714        H  0.87366384  0.95216357  0.13346628     0.32100
H715        H  0.02119203  0.94452289  0.11024272     0.31000
H716        H  0.84004352  0.83518650  0.07267450     0.35000
H717        H  0.94447013  0.79287732  0.08957605     0.27800
H718        H  0.88972344  0.05706578  0.03647572     0.32000
H719        H  0.98419303  0.02935121  0.07488679     0.34800
H720        H  0.82657470  0.94010526  0.11073683     0.27500
H721        H  0.90526075  0.80561497  0.08989915     0.40300
H722        H  0.94326600  0.88000318  0.99728839     0.30400
H723        H  0.85394014  0.87709417  0.01784965     0.38000
H724        H  0.98983401  0.97071549  0.11310434     0.29900
H725        H  0.01354662  0.94086056  0.01938874     0.29900
H726        H  0.92269427  0.06212671  0.04889445     0.30200
Zr727      Zr  0.76394050  0.14326071  0.19286502     2.17500
O728        O  0.82750465  0.14621055  0.19690004    -0.52200
O729        O  0.76704741  0.09249494  0.21373057    -0.75400
O730        O  0.78028063  0.18461043  0.21775036    -0.82200
O731        O  0.77343592  0.13472984  0.14212772    -0.83900
O732        O  0.73072346  0.18398674  0.23393063    -0.79500
O733        O  0.79922750  0.11474508  0.16710798    -0.91200
O734        O  0.71548030  0.06198068  0.21233240    -0.77100
O735        O  0.71085716  0.13455687  0.20989984    -0.86600
O736        O  0.72686395  0.10340736  0.17656697    -0.86300
O737        O  0.73334296  0.19998888  0.19607140    -0.73100
O738        O  0.75126191  0.17247061  0.16489033    -0.85200
Zr739      Zr  0.63407930  0.17928934  0.17073111     2.26400
Zr740      Zr  0.68083388  0.19019220  0.21392611     2.06300
Zr741      Zr  0.71201218  0.13332457  0.14932492     2.10000
Zr742      Zr  0.67497503  0.09423673  0.19372220     1.78800
O743        O  0.72556941  0.12830865  0.11769266    -0.94000
O744        O  0.64589912  0.07990545  0.22179691    -0.41800
O745        O  0.65993751  0.12242679  0.16616412    -0.78400
O746        O  0.64449078  0.14909437  0.19822775    -0.97100
O747        O  0.67098374  0.21913843  0.18650911    -0.90400
O748        O  0.68511314  0.18959671  0.15290246    -0.93300
C749        C  0.74663088  0.06675482  0.21835514     1.00500
C750        C  0.79754746  0.11674717  0.14962421     1.13400
C751        C  0.76131908  0.19650303  0.23080330     1.04200
O752        O  0.65148772  0.16179916  0.23895371    -0.95400
O753        O  0.62243637  0.22195502  0.21486678    -0.91200
O754        O  0.59083155  0.20505432  0.19057132    -0.84300
C755        C  0.59379953  0.22211359  0.20527758     1.10800
O756        O  0.78242513  0.24896548  0.16600183    -0.97400
Zr757      Zr  0.72207732  0.22791575  0.16871859     1.88900
O758        O  0.62249247  0.24014945  0.16428141    -0.74100
O759        O  0.68958915  0.24416067  0.23103606    -0.53300
O760        O  0.74092696  0.28252096  0.18302874    -0.98000
O761        O  0.73005965  0.24135724  0.13712018    -0.55200
O762        O  0.67475235  0.26913472  0.16455588    -0.74600
C763        C  0.64117969  0.26820146  0.16324937     0.97800
O764        O  0.57752671  0.15168032  0.16412592    -0.63400
O765        O  0.70739289  0.07010542  0.14406651    -0.58200
O766        O  0.62102225  0.17353544  0.13953824    -0.94900
O767        O  0.66808464  0.14685178  0.12684291    -0.93300
O768        O  0.68076637  0.03860108  0.17771471    -0.93700
O769        O  0.62012522  0.06313488  0.18752725    -0.92400
C770        C  0.63769663  0.16124753  0.12610359     1.16600
H771        H  0.73889996  0.08143501  0.17440479     0.32600
H772        H  0.62263462  0.14524848  0.20447330     0.43400
H773        H  0.67983270  0.20171260  0.14191701     0.36900
H774        H  0.74664891  0.21924182  0.20108546     0.33400
H775        H  0.62171289  0.08921845  0.22072634     0.25200
H776        H  0.68380241  0.26342983  0.22261470     0.31100
H777        H  0.72876491  0.28258003  0.19469074     0.37000
H778        H  0.70044281  0.02606414  0.18357394     0.31500
H779        H  0.68787460  0.06763595  0.13537803     0.30400
H780        H  0.73302865  0.15228396  0.11398615     0.32100
H781        H  0.74478056  0.22190056  0.13253220     0.31000
H782        H  0.60188144  0.08166573  0.18781560     0.35000
H783        H  0.57325946  0.13548350  0.17426021     0.27800
H784        H  0.83162301  0.14069583  0.20965148     0.32000
H785        H  0.79617407  0.23340165  0.17399822     0.34800
H786        H  0.72876092  0.06417043  0.13719795     0.27500
H787        H  0.55975082  0.17048809  0.16546671     0.40300
H788        H  0.66040219  0.17449491  0.24959937     0.30400
H789        H  0.64300577  0.05393381  0.22165253     0.38000
H790        H  0.74555262  0.26239066  0.13681200     0.29900
H791        H  0.67032249  0.24433528  0.23988284     0.29900
H792        H  0.83359582  0.17151860  0.19567327     0.30200
Zr793      Zr  0.25209742  0.89186542  0.19532507     2.17500
O794        O  0.31376470  0.89803921  0.20368597    -0.52200
O795        O  0.25311924  0.94214091  0.21667972    -0.75400
O796        O  0.28864785  0.91638089  0.16867960    -0.82200
O797        O  0.22591845  0.84033586  0.23521353    -0.83900
O798        O  0.25415066  0.91710161  0.14401478    -0.79500
O799        O  0.26991784  0.84147033  0.21531882    -0.91200
O800        O  0.19821952  0.96573642  0.21835971    -0.77100
O801        O  0.21129673  0.92902783  0.18002034    -0.86600
O802        O  0.19935691  0.89505633  0.21351371    -0.86300
O803        O  0.23984468  0.86212199  0.16753280    -0.73100
O804        O  0.22503657  0.83463818  0.19909864    -0.85200
Zr805      Zr  0.12461008  0.84466970  0.17399563     2.26400
Zr806      Zr  0.19691363  0.89873695  0.15292824     2.06300
Zr807      Zr  0.17278899  0.83796736  0.21737939     2.10000
Zr808      Zr  0.15986287  0.93286001  0.19820617     1.78800
O809        O  0.18204521  0.78292837  0.23350142    -0.94000
O810        O  0.16368457  0.99246548  0.18604833    -0.41800
O811        O  0.13352034  0.87543942  0.20164749    -0.78400
O812        O  0.14481126  0.90460885  0.17031633    -0.97100
O813        O  0.17608978  0.83987214  0.15620774    -0.90400
O814        O  0.16433832  0.80828450  0.19023899    -0.93300
C815        C  0.23059189  0.96407794  0.22321385     1.00500
C816        C  0.25548101  0.82888983  0.22971339     1.13400
C817        C  0.28370419  0.92242789  0.15153874     1.04200
O818        O  0.17016074  0.95598953  0.14737501    -0.95400
O819        O  0.16269735  0.87000398  0.12996074    -0.91200
O820        O  0.11379858  0.84596222  0.14218623    -0.84300
C821        C  0.13281738  0.85467394  0.12878308     1.10800
O822        O  0.27614366  0.78365889  0.16996826    -0.97400
Zr823      Zr  0.21567397  0.80409803  0.17219369     1.88900
O824        O  0.11673211  0.78293091  0.16674605    -0.74100
O825        O  0.21577550  0.91346733  0.12264626    -0.53300
O826        O  0.22908453  0.78971916  0.14129495    -0.98000
O827        O  0.23387168  0.75385735  0.19023244    -0.55200
O828        O  0.17172063  0.76042591  0.16515118    -0.74600
C829        C  0.13815539  0.75732764  0.16460413     0.97800
O830        O  0.06462358  0.86517107  0.16939593    -0.63400
O831        O  0.14637688  0.86479006  0.24358613    -0.58200
O832        O  0.08318773  0.81847012  0.19429737    -0.94900
O833        O  0.11485871  0.80543021  0.21920370    -0.93300
O834        O  0.12628344  0.93642566  0.22577070    -0.93700
O835        O  0.10284924  0.96063940  0.19367155    -0.92400
C836        C  0.08641800  0.80359910  0.20953705     1.16600
H837        H  0.20406271  0.90286264  0.22551704     0.32600
H838        H  0.12706804  0.91796704  0.16405199     0.43400
H839        H  0.15512270  0.78554265  0.19365209     0.36900
H840        H  0.26069819  0.85906999  0.16042316     0.33400
H841        H  0.18846410  0.99536851  0.18230427     0.25200
H842        H  0.21949291  0.89076649  0.11638838     0.31100
H843        H  0.22964673  0.76361273  0.14097066     0.37000
H844        H  0.12568369  0.96188249  0.22870041     0.31500
H845        H  0.13754643  0.84457991  0.25066897     0.30400
H846        H  0.17519675  0.76413638  0.22499427     0.32100
H847        H  0.22437752  0.73284439  0.18400382     0.31000
H848        H  0.08578628  0.94084435  0.19384445     0.35000
H849        H  0.06655728  0.88464803  0.16064241     0.27800
H850        H  0.31941274  0.92325236  0.20169190     0.32000
H851        H  0.29075890  0.80518480  0.17121725     0.34800
H852        H  0.16651488  0.87401978  0.25059091     0.27500
H853        H  0.05277472  0.84583614  0.16280645     0.40300
H854        H  0.18913085  0.97046537  0.14203914     0.30400
H855        H  0.15017958  0.99199209  0.17474511     0.38000
H856        H  0.21973535  0.75561820  0.20125553     0.29900
H857        H  0.19517480  0.92419217  0.11666868     0.29900
H858        H  0.32689317  0.88530784  0.19430966     0.30200
Zr859      Zr  0.39696989  0.03021673  0.05233566     2.17500
O860        O  0.39196363  0.96744585  0.04577858    -0.52200
O861        O  0.34548368  0.02776945  0.03220427    -0.75400
O862        O  0.37321517  0.99463626  0.07966314    -0.82200
O863        O  0.44600836  0.05750543  0.01101317    -0.83900
O864        O  0.36695527  0.03154250  0.10328558    -0.79500
O865        O  0.44562496  0.01357451  0.03112322    -0.91200
O866        O  0.31645792  0.07993051  0.03460559    -0.77100
O867        O  0.36179878  0.06978285  0.06927110    -0.86600
O868        O  0.38986183  0.08325499  0.03430156    -0.86300
O869        O  0.43051072  0.04249674  0.07886635    -0.73100
O870        O  0.45226960  0.05930611  0.04671061    -0.85200
Zr871      Zr  0.44385607  0.15925789  0.07215676     2.26400
Zr872      Zr  0.39621538  0.08431190  0.09513033     2.06300
Zr873      Zr  0.44554789  0.11153317  0.02846677     2.10000
Zr874      Zr  0.35352949  0.12111776  0.05136687     1.78800
O875        O  0.49920548  0.10587242  0.01105082    -0.94000
O876        O  0.30098974  0.12110619  0.06993522    -0.41800
O877        O  0.40930163  0.14953838  0.04556946    -0.78400
O878        O  0.38583854  0.13639367  0.07803495    -0.97100
O879        O  0.45285738  0.10778267  0.08951141    -0.90400
O880        O  0.47854453  0.12052151  0.05460878    -0.93300
C881        C  0.32003526  0.04872992  0.02816365     1.00500
C882        C  0.45796853  0.02799409  0.01665094     1.13400
C883        C  0.36386004  0.00112689  0.09629894     1.04200
O884        O  0.34306025  0.10666317  0.10911215    -0.95400
O885        O  0.41896311  0.12345574  0.11762539    -0.91200
O886        O  0.44685679  0.16913308  0.10407919    -0.84300
C887        C  0.43671623  0.15214828  0.11798513     1.10800
O888        O  0.50824261  0.00902751  0.07654746    -0.97400
Zr889      Zr  0.48663646  0.06882377  0.07232459     1.88900
O890        O  0.50600495  0.16811061  0.07833440    -0.74100
O891        O  0.41706558  0.05154116  0.12107198    -0.53300
O892        O  0.50552184  0.06020913  0.10308566    -0.98000
O893        O  0.53288116  0.05066641  0.05192789    -0.55200
O894        O  0.53001691  0.11353309  0.07767417    -0.74600
C895        C  0.53230110  0.14709784  0.07925060     0.97800
O896        O  0.41992599  0.21768928  0.07798908    -0.63400
O897        O  0.41450155  0.13478804  0.00257963    -0.58200
O898        O  0.46931542  0.20099605  0.05170770    -0.94900
O899        O  0.47650904  0.17079297  0.02577691    -0.93300
O900        O  0.33265068  0.14740408  0.02365341    -0.93700
O901        O  0.33166976  0.18130922  0.05304330    -0.92400
C902        C  0.48094086  0.19863416  0.03576862     1.16600
H903        H  0.37995246  0.07849830  0.02268408     0.32600
H904        H  0.37276715  0.15324069  0.08501629     0.43400
H905        H  0.50045368  0.13060256  0.05060971     0.36900
H906        H  0.43410484  0.02138181  0.08584133     0.33400
H907        H  0.30103212  0.09813262  0.07621700     0.25200
H908        H  0.44218144  0.05801319  0.12235874     0.31100
H909        H  0.53151633  0.05953321  0.10253720     0.37000
H910        H  0.34659311  0.13598259  0.01416245     0.31500
H911        H  0.43329878  0.14457701  0.99490133     0.30400
H912        H  0.51824393  0.11483667  0.01888183     0.32100
H913        H  0.55507920  0.05779853  0.05787371     0.31000
H914        H  0.35049308  0.19464476  0.05925131     0.35000
H915        H  0.44069421  0.23293782  0.08020134     0.27800
H916        H  0.41588899  0.95793062  0.04767567     0.32000
H917        H  0.48879251  0.99366112  0.07237175     0.34800
H918        H  0.40603072  0.11365227  0.99607784     0.27500
H919        H  0.41045161  0.22580669  0.06637888     0.40300
H920        H  0.33693698  0.08889113  0.11828697     0.30400
H921        H  0.30585343  0.13868706  0.07940092     0.38000
H922        H  0.53075422  0.06688222  0.04163140     0.29900
H923        H  0.40538040  0.06238718  0.13149863     0.29900
H924        H  0.38820317  0.96618733  0.03271381     0.30200
Zr925      Zr  0.29248888  0.38161527  0.19248882     2.17500
O926        O  0.22875907  0.37721014  0.19496664    -0.52200
O927        O  0.28756132  0.43278909  0.21293725    -0.75400
O928        O  0.27608562  0.34247822  0.21803993    -0.82200
O929        O  0.28418848  0.39187153  0.14097273    -0.83900
O930        O  0.32620477  0.33854655  0.23437625    -0.79500
O931        O  0.25649080  0.40783904  0.16623277    -0.91200
O932        O  0.34003017  0.46165905  0.21267911    -0.77100
O933        O  0.34553816  0.39055616  0.20975359    -0.86600
O934        O  0.32919514  0.42070783  0.17573247    -0.86300
O935        O  0.32285764  0.32509838  0.19682825    -0.73100
O936        O  0.30548378  0.35124994  0.16500979    -0.85200
Zr937      Zr  0.42159953  0.34403195  0.17010798     2.26400
Zr938      Zr  0.37618438  0.33518830  0.21406273     2.06300
Zr939      Zr  0.34472354  0.38953749  0.14898019     2.10000
Zr940      Zr  0.38077548  0.43047103  0.19323748     1.78800
O941        O  0.32875590  0.39701173  0.11767198    -0.94000
O942        O  0.41239463  0.44608342  0.22052423    -0.41800
O943        O  0.39666558  0.40142670  0.16575133    -0.78400
O944        O  0.41149817  0.37543959  0.19742295    -0.97100
O945        O  0.38549198  0.30529587  0.18693745    -0.90400
O946        O  0.36962540  0.33253788  0.15317257    -0.93300
C947        C  0.30825330  0.45790304  0.21811054     1.00500
C948        C  0.25839336  0.40649770  0.14872674     1.13400
C949        C  0.29415583  0.32973864  0.23128817     1.04200
O950        O  0.40405792  0.36436198  0.23938758    -0.95400
O951        O  0.43559350  0.30451341  0.21463119    -0.91200
O952        O  0.46592321  0.32017371  0.18975121    -0.84300
C953        C  0.46383298  0.30412479  0.20475642     1.10800
O954        O  0.27209649  0.27643697  0.17044784    -0.97400
Zr955      Zr  0.33332714  0.29543011  0.17009161     1.88900
O956        O  0.43307927  0.28246677  0.16458859    -0.74100
O957        O  0.37309614  0.27963412  0.23039710    -0.53300
O958        O  0.31924344  0.24294616  0.18748339    -0.98000
O959        O  0.31791288  0.27492970  0.14022884    -0.55200
O960        O  0.38040626  0.25425480  0.16523861    -0.74600
C961        C  0.41397502  0.25459538  0.16390243     0.97800
O962        O  0.47918289  0.37028353  0.16471747    -0.63400
O963        O  0.35935763  0.45167397  0.14513114    -0.58200
O964        O  0.43162776  0.34651873  0.13823584    -0.94900
O965        O  0.38388212  0.37162865  0.12528416    -0.93300
O966        O  0.37154908  0.48666181  0.17815802    -0.93700
O967        O  0.43489546  0.46255179  0.18692627    -0.92400
C968        C  0.41374226  0.35623854  0.12455334     1.16600
H969        H  0.31712677  0.44252340  0.17318381     0.32600
H970        H  0.43366892  0.37944444  0.20341045     0.43400
H971        H  0.37351384  0.31914955  0.14244124     0.36900
H972        H  0.30950222  0.30626225  0.20217146     0.33400
H973        H  0.39710895  0.43776469  0.23034613     0.25200
H974        H  0.37651538  0.28624721  0.24306617     0.31100
H975        H  0.33356573  0.24516194  0.19848280     0.37000
H976        H  0.36748877  0.50390606  0.18783890     0.31500
H977        H  0.37766036  0.45203342  0.13576814     0.30400
H978        H  0.33305638  0.42213919  0.11479922     0.32100
H979        H  0.33986081  0.26501542  0.13528476     0.31000
H980        H  0.45366351  0.44464100  0.18798642     0.35000
H981        H  0.47443262  0.39147799  0.15738236     0.27800
H982        H  0.22336050  0.38459801  0.20732590     0.32000
H983        H  0.25940030  0.29603225  0.17628144     0.34800
H984        H  0.33839535  0.46229880  0.13943977     0.27500
H985        H  0.49122653  0.35377017  0.15654834     0.40300
H986        H  0.42950847  0.36411758  0.23667649     0.30400
H987        H  0.43309838  0.43040512  0.22103693     0.38000
H988        H  0.31374716  0.29670724  0.13324678     0.29900
H989        H  0.34828473  0.27185776  0.22957688     0.29900
H990        H  0.22351700  0.35161202  0.19465059     0.30200
Zr991      Zr  0.14561783  0.52533249  0.05295003     2.17500
O992        O  0.14866887  0.46193856  0.04784143    -0.52200
O993        O  0.19665073  0.52499848  0.03219631    -0.75400
O994        O  0.10534175  0.50709691  0.02819589    -0.82200
O995        O  0.17174721  0.51972666  0.10463238    -0.83900
O996        O  0.10446856  0.55647012  0.01156033    -0.79500
O997        O  0.17029627  0.48773921  0.07902829    -0.91200
O998        O  0.22013162  0.58018999  0.03073226    -0.77100
O999        O  0.15341039  0.57847099  0.03529524    -0.86600
O1000       O  0.18311638  0.56269836  0.07062929    -0.86300
O1001       O  0.08858342  0.55514618  0.04923901    -0.73100
O1002       O  0.11181440  0.53462766  0.07998106    -0.85200
Zr1003     Zr  0.10201973  0.65280255  0.07400639     2.26400
Zr1004     Zr  0.09689123  0.60736568  0.03098169     2.06300
Zr1005     Zr  0.14754055  0.57471349  0.09640939     2.10000
Zr1006     Zr  0.18977616  0.61487807  0.05308454     1.78800
O1007       O  0.12130522  0.53931616  0.12002540    -0.94000
O1008       O  0.20747593  0.65888987  0.03114651    -0.41800
O1009       O  0.13767268  0.60333199  0.06913147    -0.78400
O1010       O  0.13580369  0.64615858  0.04726804    -0.97100
O1011       O  0.06369904  0.61658363  0.05737533    -0.90400
O1012       O  0.09199458  0.60311252  0.09300287    -0.93300
C1013       C  0.21844432  0.54789150  0.02567898     1.00500
C1014       C  0.17720210  0.49120822  0.09617745     1.13400
C1015       C  0.09284077  0.52549677  0.01503991     1.04200
O1016       O  0.12053845  0.63552464  0.00437691    -0.95400
O1017       O  0.06531100  0.66554941  0.02872668    -0.91200
O1018       O  0.07363756  0.69507367  0.05478327    -0.84300
C1019       C  0.06094637  0.69284998  0.03898266     1.10800
O1020       O  0.03351403  0.50506480  0.07518137    -0.97400
Zr1021     Zr  0.05664846  0.56508277  0.07552061     1.88900
O1022       O  0.04103004  0.66414504  0.07874295    -0.74100
O1023       O  0.04164431  0.59473359  0.01569720    -0.53300
O1024       O  0.00301458  0.54954147  0.05947203    -0.98000
O1025       O  0.04239462  0.55175990  0.10649576    -0.55200
O1026       O  0.01402663  0.61090422  0.08073300    -0.74600
C1027       C  0.01391159  0.64470175  0.08098833     0.97800
O1028       O  0.14011862  0.70322618  0.08006726    -0.63400
O1029       O  0.20427248  0.59973015  0.10499079    -0.58200
O1030       O  0.11137170  0.66605166  0.10514556    -0.94900
O1031       O  0.13842636  0.61980788  0.11850240    -0.93300
O1032       O  0.24565574  0.60737780  0.06858734    -0.93700
O1033       O  0.20438518  0.66155459  0.07418119    -0.92400
C1034       C  0.12400972  0.65015917  0.11881566     1.16600
H1035       H  0.20521494  0.55157003  0.07353111     0.32600
H1036       H  0.13949637  0.66830484  0.04115758     0.43400
H1037       H  0.07959750  0.60820116  0.10391551     0.36900
H1038       H  0.07009345  0.54130876  0.04401190     0.33400
H1039       H  0.23343641  0.65973241  0.03205975     0.25200
H1040       H  0.02319557  0.60254812  0.02407112     0.31100
H1041       H  0.00584037  0.56017224  0.04749779     0.37000
H1042       H  0.26283922  0.60261148  0.05899940     0.31500
H1043       H  0.20055131  0.62543957  0.10623506     0.30400
H1044       H  0.12860475  0.55108035  0.13124352     0.32100
H1045       H  0.05115354  0.52751039  0.10847573     0.31000
H1046       H  0.22163746  0.67665023  0.06787400     0.35000
H1047       H  0.14890488  0.71053192  0.06819958     0.27800
H1048       H  0.15267602  0.45914953  0.03487088     0.32000
H1049       H  0.04840743  0.49239448  0.06648856     0.34800
H1050       H  0.20833946  0.59115697  0.11730019     0.27500
H1051       H  0.12387712  0.72235716  0.08356212     0.40300
H1052       H  0.09987470  0.63916755  0.99653431     0.30400
H1053       H  0.20272558  0.64768831  0.01944603     0.38000
H1054       H  0.01646689  0.54937545  0.10661622     0.29900
H1055       H  0.04060269  0.61188509  0.00574708     0.29900
H1056       H  0.12444959  0.45314857  0.04983890     0.30200
Zr1057     Zr  0.28653495  0.87660097  0.80595498     2.17500
O1058       O  0.22386612  0.87830599  0.79924760    -0.52200
O1059       O  0.28138494  0.92996225  0.78713433    -0.75400
O1060       O  0.25025029  0.89978274  0.83287099    -0.82200
O1061       O  0.31706615  0.82761377  0.76421321    -0.83900
O1062       O  0.28496489  0.90221188  0.85751744    -0.79500
O1063       O  0.27208093  0.82807017  0.78391779    -0.91200
O1064       O  0.33312598  0.96007225  0.78899523    -0.77100
O1065       O  0.32382609  0.91227225  0.82410540    -0.86600
O1066       O  0.33882231  0.88880980  0.78834993    -0.86300
O1067       O  0.29972044  0.84146268  0.83194451    -0.73100
O1068       O  0.31848986  0.82344991  0.79938774    -0.85200
Zr1069     Zr  0.41618083  0.83516672  0.82559532     2.26400
Zr1070     Zr  0.33943838  0.87680051  0.84928155     2.06300
Zr1071     Zr  0.37032049  0.83555345  0.78177936     2.10000
Zr1072     Zr  0.37443902  0.92563846  0.80677303     1.78800
O1073       O  0.37224166  0.79770125  0.75555441    -0.94000
O1074       O  0.36049863  0.97824809  0.82401356    -0.41800
O1075       O  0.40612977  0.87217838  0.80003739    -0.78400
O1076       O  0.39080933  0.89152764  0.83264165    -0.97100
O1077       O  0.36549840  0.82138078  0.84282418    -0.90400
O1078       O  0.37932645  0.79986095  0.80697738    -0.93300
C1079       C  0.30163073  0.95613690  0.78303106     1.00500
C1080       C  0.28692262  0.81652440  0.76938341     1.13400
C1081       C  0.25556593  0.90742189  0.84983531     1.04200
O1082       O  0.35858696  0.93243734  0.86241738    -0.95400
O1083       O  0.38121022  0.85846278  0.87146614    -0.91200
O1084       O  0.42746284  0.83346005  0.85740402    -0.84300
C1085       C  0.41131793  0.84376465  0.87146318     1.10800
O1086       O  0.26840712  0.76505045  0.82636814    -0.97400
Zr1087     Zr  0.32853595  0.78698377  0.82435188     1.88900
O1088       O  0.42788604  0.77319985  0.82948591    -0.74100
O1089       O  0.30949949  0.85624664  0.87609864    -0.53300
O1090       O  0.31828266  0.76365858  0.85420944    -0.98000
O1091       O  0.31177157  0.74095963  0.80326647    -0.55200
O1092       O  0.37536631  0.74457727  0.82819609    -0.74600
C1093       C  0.40905158  0.74512244  0.82939704     0.97800
O1094       O  0.47472410  0.85876916  0.83163109    -0.63400
O1095       O  0.39653422  0.87907105  0.76193194    -0.58200
O1096       O  0.45894096  0.81266911  0.80482748    -0.94900
O1097       O  0.42715098  0.80065373  0.77983649    -0.93300
O1098       O  0.40884195  0.94497241  0.78118728    -0.93700
O1099       O  0.42824487  0.95716806  0.81465594    -0.92400
C1100       C  0.45554899  0.79798498  0.78953591     1.16600
H1101       H  0.33377487  0.89891645  0.77681456     0.32600
H1102       H  0.40695240  0.90488288  0.84000410     0.43400
H1103       H  0.38949124  0.77848088  0.80242579     0.36900
H1104       H  0.27862428  0.83642306  0.83863424     0.33400
H1105       H  0.37582890  0.97724628  0.83469803     0.25200
H1106       H  0.31782778  0.83179720  0.87795011     0.31100
H1107       H  0.34104139  0.75360057  0.85808077     0.37000
H1108       H  0.40017241  0.96895502  0.77841652     0.31500
H1109       H  0.42216389  0.87503100  0.76294803     0.30400
H1110       H  0.36504180  0.77411996  0.75995386     0.32100
H1111       H  0.31304996  0.71871028  0.81014994     0.31000
H1112       H  0.44676030  0.93888432  0.81450890     0.35000
H1113       H  0.47121293  0.87761764  0.84058652     0.27800
H1114       H  0.21501926  0.85453154  0.80243710     0.32000
H1115       H  0.25491948  0.78000987  0.81796974     0.34800
H1116       H  0.39037361  0.87078580  0.74978701     0.27500
H1117       H  0.48712402  0.83980485  0.83817881     0.40300
H1118       H  0.33824509  0.94843867  0.86108171     0.30400
H1119       H  0.36981437  0.99819891  0.81689905     0.38000
H1120       H  0.33161769  0.73968859  0.79477814     0.29900
H1121       H  0.31989974  0.86993661  0.88606925     0.29900
H1122       H  0.22238700  0.87925969  0.78606226     0.30200
Zr1123     Zr  0.14488584  0.02393530  0.94629415     2.17500
O1124       O  0.14802780  0.96239645  0.95549659    -0.52200
O1125       O  0.19778466  0.02368773  0.96566289    -0.75400
O1126       O  0.16765949  0.98674447  0.91959767    -0.82200
O1127       O  0.09999851  0.05322138  0.98769358    -0.83900
O1128       O  0.16819129  0.02005191  0.89440734    -0.79500
O1129       O  0.09704229  0.00853886  0.96818942    -0.91200
O1130       O  0.22440481  0.07731157  0.96314607    -0.77100
O1131       O  0.17806149  0.06259050  0.92760068    -0.86600
O1132       O  0.15296543  0.07825280  0.96315419    -0.86300
O1133       O  0.10950279  0.03345592  0.92000348    -0.73100
O1134       O  0.08973206  0.05257033  0.95199440    -0.85200
Zr1135     Zr  0.09530758  0.15064028  0.92510293     2.26400
Zr1136     Zr  0.14161553  0.07466047  0.90209745     2.06300
Zr1137     Zr  0.09722620  0.10570395  0.96931223     2.10000
Zr1138     Zr  0.18764893  0.11508213  0.94444926     1.78800
O1139       O  0.04382917  0.09822155  0.98675022    -0.94000
O1140       O  0.24150607  0.10746236  0.92735358    -0.41800
O1141       O  0.13214760  0.14317049  0.95094425    -0.78400
O1142       O  0.15279621  0.12775297  0.91831166    -0.97100
O1143       O  0.08522877  0.09819088  0.90829210    -0.90400
O1144       O  0.06215893  0.11216097  0.94361431    -0.93300
C1145       C  0.22229451  0.04602667  0.96966442     1.00500
C1146       C  0.08637560  0.02403120  0.98268629     1.13400
C1147       C  0.17401855  0.99102341  0.90244835     1.04200
O1148       O  0.19469950  0.09372170  0.88672640    -0.95400
O1149       O  0.12169834  0.11569020  0.87963640    -0.91200
O1150       O  0.09518958  0.16164676  0.89336827    -0.84300
C1151       C  0.10596492  0.14542569  0.87940801     1.10800
O1152       O  0.03325772  0.99811752  0.92709557    -0.97400
Zr1153     Zr  0.05356034  0.05920271  0.92682500     1.88900
O1154       O  0.03330106  0.15710352  0.91811144    -0.74100
O1155       O  0.11745270  0.04150225  0.87698850    -0.53300
O1156       O  0.03498638  0.04386430  0.89664312    -0.98000
O1157       O  0.00442214  0.04462788  0.94629428    -0.55200
O1158       O  0.00986012  0.10234749  0.92042196    -0.74600
C1159       C  0.00730454  0.13546398  0.91758960     0.97800
O1160       O  0.11827551  0.21009759  0.92051666    -0.63400
O1161       O  0.12747091  0.13185412  0.99478994    -0.58200
O1162       O  0.06886699  0.19235269  0.94554368    -0.94900
O1163       O  0.06526602  0.16348727  0.97209028    -0.93300
O1164       O  0.20246913  0.15367038  0.96936290    -0.93700
O1165       O  0.21855148  0.16918518  0.93640692    -0.92400
C1166       C  0.05884752  0.19039807  0.96184135     1.16600
H1167       H  0.16331198  0.07476320  0.97477819     0.32600
H1168       H  0.16520056  0.14415921  0.91071527     0.43400
H1169       H  0.04017745  0.12215266  0.94748869     0.36900
H1170       H  0.10583783  0.01172430  0.91354205     0.33400
H1171       H  0.24861628  0.08269123  0.92940898     0.25200
H1172       H  0.09234053  0.04811584  0.87646885     0.31100
H1173       H  0.01386437  0.05829004  0.89423177     0.37000
H1174       H  0.22049681  0.14085450  0.97633764     0.31500
H1175       H  0.13753832  0.11159579  0.00136897     0.30400
H1176       H  0.04868159  0.11073151  0.99809447     0.32100
H1177       H  0.98330242  0.04577930  0.93855747     0.31000
H1178       H  0.20118406  0.18327273  0.92963729     0.35000
H1179       H  0.14177313  0.20672067  0.91516438     0.27800
H1180       H  0.17152228  0.95432287  0.95164656     0.32000
H1181       H  0.05145379  0.98454790  0.92069709     0.34800
H1182       H  0.14804368  0.14416924  0.98965490     0.27500
H1183       H  0.10384085  0.22030496  0.91080282     0.40300
H1184       H  0.19897643  0.07533316  0.87762018     0.30400
H1185       H  0.23395266  0.10809162  0.91471626     0.38000
H1186       H  0.00223755  0.06517332  0.95436291     0.29900
H1187       H  0.12792707  0.05226688  0.86619162     0.29900
H1188       H  0.13127743  0.94992116  0.94753969     0.30200
Zr1189     Zr  0.75006600  0.62770800  0.80405485     2.17500
O1190       O  0.81138009  0.62659578  0.79481669    -0.52200
O1191       O  0.75169973  0.57631944  0.78355365    -0.75400
O1192       O  0.78759048  0.60482341  0.83116464    -0.82200
O1193       O  0.71769671  0.67977918  0.76361549    -0.83900
O1194       O  0.75254961  0.59731453  0.85533285    -0.79500
O1195       O  0.76335751  0.67816322  0.78288589    -0.91200
O1196       O  0.69907560  0.54770383  0.78544690    -0.77100
O1197       O  0.71292635  0.59161199  0.82198241    -0.86600
O1198       O  0.69593001  0.61863721  0.78721957    -0.86300
O1199       O  0.73936237  0.66135992  0.83068921    -0.73100
O1200       O  0.71844803  0.68152265  0.79884770    -0.85200
Zr1201     Zr  0.62219117  0.67151264  0.82621255     2.26400
Zr1202     Zr  0.69956062  0.62607554  0.84789454     2.06300
Zr1203     Zr  0.66521718  0.67283593  0.78174792     2.10000
Zr1204     Zr  0.66052480  0.58121225  0.80521422     1.78800
O1205       O  0.66370412  0.72034978  0.75990498    -0.94000
O1206       O  0.66835326  0.52660984  0.82200364    -0.41800
O1207       O  0.62959175  0.63590023  0.79993371    -0.78400
O1208       O  0.64667484  0.61408513  0.83180640    -0.97100
O1209       O  0.67470515  0.68250482  0.84262948    -0.90400
O1210       O  0.65874076  0.70680407  0.80761938    -0.93300
C1211       C  0.72999558  0.55166702  0.77883707     1.00500
C1212       C  0.74785460  0.69112362  0.76877586     1.13400
C1213       C  0.78251198  0.59534019  0.84796797     1.04200
O1214       O  0.67865400  0.57185290  0.86176003    -0.95400
O1215       O  0.66194289  0.64585655  0.87143856    -0.91200
O1216       O  0.61536035  0.67267108  0.85831269    -0.84300
C1217       C  0.63290076  0.66253590  0.87203992     1.10800
O1218       O  0.77148437  0.73959981  0.82457951    -0.97400
Zr1219     Zr  0.71152841  0.71681351  0.82423269     1.88900
O1220       O  0.61256796  0.73374995  0.83161210    -0.74100
O1221       O  0.73371550  0.64678241  0.87345262    -0.53300
O1222       O  0.72633849  0.73633569  0.85428306    -0.98000
O1223       O  0.72699230  0.76397243  0.80355951    -0.55200
O1224       O  0.66638517  0.75943967  0.82980747    -0.74600
C1225       C  0.63289503  0.76080299  0.83159240     0.97800
O1226       O  0.56440781  0.64675648  0.83273050    -0.63400
O1227       O  0.64043162  0.63432690  0.75893482    -0.58200
O1228       O  0.57809090  0.69634512  0.80664004    -0.94900
O1229       O  0.60695702  0.70537534  0.78052949    -0.93300
O1230       O  0.62410473  0.56776935  0.77928952    -0.93700
O1231       O  0.60789707  0.54790585  0.81299792    -0.92400
C1232       C  0.57966305  0.70913527  0.79083239     1.16600
H1233       H  0.69962722  0.60960265  0.77537705     0.32600
H1234       H  0.63072410  0.60058692  0.83916006     0.43400
H1235       H  0.64833558  0.72847245  0.80349001     0.36900
H1236       H  0.76084435  0.66559666  0.83726270     0.33400
H1237       H  0.68085063  0.51050119  0.81381660     0.25200
H1238       H  0.72717605  0.67186100  0.87493575     0.31100
H1239       H  0.72443931  0.76236435  0.85381449     0.37000
H1240       H  0.62969507  0.54300662  0.77625025     0.31500
H1241       H  0.61792794  0.64560691  0.75558194     0.30400
H1242       H  0.66790783  0.74205038  0.76695948     0.32100
H1243       H  0.72240956  0.78606731  0.81018749     0.31000
H1244       H  0.58852922  0.56518855  0.81204936     0.35000
H1245       H  0.56804987  0.63075547  0.84300991     0.27800
H1246       H  0.81857039  0.60166319  0.79617264     0.32000
H1247       H  0.78645090  0.71868007  0.82258327     0.34800
H1248       H  0.65577471  0.63790274  0.74843486     0.27500
H1249       H  0.55079623  0.66671935  0.83762892     0.40300
H1250       H  0.69044802  0.57131531  0.87355459     0.30400
H1251       H  0.68575075  0.53208467  0.83145505     0.38000
H1252       H  0.70844317  0.76315217  0.79427024     0.29900
H1253       H  0.72369688  0.63466763  0.88399912     0.29900
H1254       H  0.82423785  0.63930931  0.80437234     0.30200
Zr1255     Zr  0.89743844  0.48720084  0.94658859     2.17500
O1256       O  0.89865095  0.54981860  0.95385408    -0.52200
O1257       O  0.84521382  0.49164344  0.96577150    -0.75400
O1258       O  0.87326800  0.52271529  0.91944572    -0.82200
O1259       O  0.94669225  0.45754944  0.98854824    -0.83900
O1260       O  0.87018801  0.48761651  0.89494683    -0.79500
O1261       O  0.94604818  0.50192900  0.96835282    -0.91200
O1262       O  0.81419323  0.44057830  0.96264816    -0.77100
O1263       O  0.86250458  0.44918762  0.92848330    -0.86600
O1264       O  0.88684483  0.43449174  0.96440447    -0.86300
O1265       O  0.93216038  0.47510164  0.92053711    -0.73100
O1266       O  0.95055304  0.45564341  0.95308402    -0.85200
Zr1267     Zr  0.94121318  0.35802323  0.92711161     2.26400
Zr1268     Zr  0.89807852  0.43414025  0.90321644     2.06300
Zr1269     Zr  0.94080020  0.40377467  0.97107498     2.10000
Zr1270     Zr  0.85046127  0.39836345  0.94612629     1.78800
O1271       O  0.99074211  0.40559411  0.99149933    -0.94000
O1272       O  0.79918806  0.40326778  0.92668626    -0.41800
O1273       O  0.90456961  0.36760467  0.95274045    -0.78400
O1274       O  0.88458911  0.38261725  0.92022716    -0.97100
O1275       O  0.95361284  0.40894598  0.90982827    -0.90400
O1276       O  0.97571565  0.39535961  0.94566800    -0.93300
C1277       C  0.81865697  0.47161423  0.96926957     1.00500
C1278       C  0.95799189  0.48744460  0.98293991     1.13400
C1279       C  0.86537263  0.51723508  0.90251278     1.04200
O1280       O  0.84439379  0.41703290  0.88765887    -0.95400
O1281       O  0.91393653  0.39107045  0.88112191    -0.91200
O1282       O  0.94006591  0.34557644  0.89558066    -0.84300
C1283       C  0.92924629  0.36108992  0.88141338     1.10800
O1284       O  0.00780728  0.50775366  0.92654005    -0.97400
Zr1285     Zr  0.98674274  0.44709487  0.92823571     1.88900
O1286       O  0.00370027  0.34905984  0.92157107    -0.74100
O1287       O  0.92735122  0.46076335  0.87756406    -0.53300
O1288       O  0.00580131  0.45505832  0.89751179    -0.98000
O1289       O  0.03466576  0.46455186  0.94804268    -0.55200
O1290       O  0.03013941  0.40248772  0.92437968    -0.74600
C1291       C  0.03103627  0.36909952  0.92198554     0.97800
O1292       O  0.91746852  0.29889477  0.92242821    -0.63400
O1293       O  0.90276746  0.38114930  0.99455729    -0.58200
O1294       O  0.96404594  0.31504672  0.94744180    -0.94900
O1295       O  0.97074994  0.34400793  0.97378179    -0.93300
O1296       O  0.83160586  0.36736008  0.97295438    -0.93700
O1297       O  0.82027070  0.34226901  0.94167032    -0.92400
C1298       C  0.97482580  0.31641673  0.96358491     1.16600
H1299       H  0.87642719  0.43934599  0.97585665     0.32600
H1300       H  0.87140349  0.36625121  0.91290819     0.43400
H1301       H  0.99699480  0.38465395  0.95007241     0.36900
H1302       H  0.93676292  0.49645665  0.91389442     0.33400
H1303       H  0.79750904  0.42859646  0.92358627     0.25200
H1304       H  0.90915702  0.46198701  0.86810609     0.31100
H1305       H  0.02960733  0.46555316  0.89846916     0.37000
H1306       H  0.83067791  0.38558539  0.98239623     0.31500
H1307       H  0.90084643  0.35555737  0.99208276     0.30400
H1308       H  0.98124717  0.39778435  0.00314036     0.32100
H1309       H  0.05646889  0.45887042  0.94147740     0.31000
H1310       H  0.83713367  0.32764191  0.93491853     0.35000
H1311       H  0.89664849  0.30217817  0.91465261     0.27800
H1312       H  0.87376205  0.55729732  0.95330492     0.32000
H1313       H  0.99170455  0.52116306  0.93434216     0.34800
H1314       H  0.91712383  0.38265191  0.00557176     0.27500
H1315       H  0.93487367  0.28675506  0.91481080     0.40300
H1316       H  0.84755181  0.42589383  0.87533290     0.30400
H1317       H  0.80612886  0.39159258  0.91543065     0.38000
H1318       H  0.03387267  0.44722977  0.95792864     0.29900
H1319       H  0.93211554  0.48561764  0.88085937     0.29900
H1320       H  0.90985363  0.56130803  0.94344284     0.30200
Zr1321     Zr  0.77906508  0.13052569  0.80095299     2.17500
O1322       O  0.71560355  0.12922739  0.79635307    -0.52200
O1323       O  0.77436322  0.07964791  0.78009445    -0.75400
O1324       O  0.76142001  0.17407380  0.77731195    -0.82200
O1325       O  0.77686985  0.10131554  0.85167626    -0.83900
O1326       O  0.81072372  0.17827773  0.76114650    -0.79500
O1327       O  0.74121133  0.10904202  0.82772343    -0.91200
O1328       O  0.82773125  0.05305866  0.77824198    -0.77100
O1329       O  0.83131895  0.12835140  0.78268049    -0.86600
O1330       O  0.81868870  0.08852077  0.81391618    -0.86300
O1331       O  0.80706241  0.18916162  0.79974732    -0.73100
O1332       O  0.79403607  0.15252176  0.83014532    -0.85200
Zr1333     Zr  0.90901242  0.16691643  0.82342145     2.26400
Zr1334     Zr  0.85986053  0.18553735  0.78142402     2.06300
Zr1335     Zr  0.83572870  0.11165923  0.84243268     2.10000
Zr1336     Zr  0.86980609  0.08627678  0.79546488     1.78800
O1337       O  0.82046207  0.09154467  0.87237080    -0.94000
O1338       O  0.89124665  0.08397776  0.76485800    -0.41800
O1339       O  0.88676729  0.10760115  0.82439968    -0.78400
O1340       O  0.89816615  0.14305128  0.79435728    -0.97100
O1341       O  0.87002779  0.20806735  0.81025565    -0.90400
O1342       O  0.85807180  0.17058573  0.84190823    -0.93300
C1343       C  0.79526607  0.05567586  0.77403868     1.00500
C1344       C  0.74645509  0.10072896  0.84460028     1.13400
C1345       C  0.77958532  0.18858936  0.76462805     1.04200
O1346       O  0.88687018  0.16745350  0.75345468    -0.95400
O1347       O  0.91839444  0.21752885  0.78128842    -0.91200
O1348       O  0.95089232  0.19741689  0.80462941    -0.84300
C1349       C  0.94738202  0.21636581  0.79057654     1.10800
O1350       O  0.75721414  0.22372545  0.83331893    -0.97400
Zr1351     Zr  0.81914388  0.21049588  0.82856006     1.88900
O1352       O  0.91842144  0.22691968  0.83314359    -0.74100
O1353       O  0.85079219  0.24529669  0.77041610    -0.53300
O1354       O  0.79747806  0.26587952  0.81634547    -0.98000
O1355       O  0.81221255  0.22222100  0.86033970    -0.55200
O1356       O  0.86489181  0.25297477  0.83465982    -0.74600
C1357       C  0.89851238  0.25363138  0.83570380     0.97800
O1358       O  0.96694901  0.14076064  0.82739101    -0.63400
O1359       O  0.85399180  0.05022313  0.84144669    -0.58200
O1360       O  0.92268418  0.15581997  0.85421296    -0.94900
O1361       O  0.87682390  0.12563461  0.86614369    -0.93300
O1362       O  0.87172054  0.02560066  0.80616110    -0.93700
O1363       O  0.92830579  0.06041627  0.79625133    -0.92400
C1364       C  0.90638113  0.14168188  0.86735240     1.16600
H1365       H  0.80761903  0.06563675  0.81504013     0.32600
H1366       H  0.91983401  0.14165337  0.78771513     0.43400
H1367       H  0.86254484  0.18106056  0.85340843     0.36900
H1368       H  0.79254760  0.20837700  0.79572032     0.33400
H1369       H  0.91424218  0.09627777  0.76502074     0.25200
H1370       H  0.85059137  0.24305744  0.75725924     0.31100
H1371       H  0.81186224  0.27000166  0.80555428     0.37000
H1372       H  0.87463893  0.01102704  0.79530447     0.31500
H1373       H  0.87695854  0.04990459  0.84770119     0.30400
H1374       H  0.81556003  0.11315805  0.87936391     0.32100
H1375       H  0.79542573  0.20400011  0.86452520     0.31000
H1376       H  0.94394530  0.07992956  0.80010438     0.35000
H1377       H  0.97539348  0.13567452  0.81518106     0.27800
H1378       H  0.71218538  0.12723684  0.78328856     0.32000
H1379       H  0.74444234  0.20194055  0.82988823     0.34800
H1380       H  0.83774907  0.03776846  0.84962432     0.27500
H1381       H  0.98214396  0.16029433  0.83167832     0.40300
H1382       H  0.91212779  0.17334104  0.75471077     0.30400
H1383       H  0.89711086  0.05887575  0.76282577     0.38000
H1384       H  0.79900069  0.24463316  0.86094666     0.29900
H1385       H  0.82632783  0.25123914  0.77364809     0.29900
H1386       H  0.70760055  0.15331736  0.79937397     0.30200
Zr1387     Zr  0.64661820  0.98869145  0.94499670     2.17500
O1388       O  0.64825962  0.05237251  0.94944050    -0.52200
O1389       O  0.69810534  0.99312960  0.96577420    -0.75400
O1390       O  0.60481877  0.00659402  0.96911681    -0.82200
O1391       O  0.67131831  0.99109326  0.89356644    -0.83900
O1392       O  0.60155034  0.95759215  0.98569567    -0.79500
O1393       O  0.66620004  0.02646088  0.91780553    -0.91200
O1394       O  0.72092319  0.93832120  0.96979872    -0.77100
O1395       O  0.65010313  0.93622848  0.96325729    -0.86600
O1396       O  0.68724558  0.94934754  0.93101164    -0.86300
O1397       O  0.58808814  0.96103274  0.94706905    -0.73100
O1398       O  0.62135198  0.97325436  0.91649107    -0.85200
Zr1399     Zr  0.60946983  0.85770141  0.92364885     2.26400
Zr1400     Zr  0.59285592  0.90833665  0.96560336     2.06300
Zr1401     Zr  0.66108525  0.93195099  0.90311027     2.10000
Zr1402     Zr  0.69157418  0.89825332  0.94964575     1.78800
O1403       O  0.67498462  0.94946095  0.87262090    -0.94000
O1404       O  0.70194723  0.86915622  0.97824022    -0.41800
O1405       O  0.66787126  0.88103198  0.92124815    -0.78400
O1406       O  0.63499018  0.87012404  0.95226631    -0.97100
O1407       O  0.56882573  0.89633101  0.93733508    -0.90400
O1408       O  0.60292261  0.90848023  0.90510746    -0.93300
C1409       C  0.71964779  0.97127626  0.97333156     1.00500
C1410       C  0.67283454  0.02150206  0.90074246     1.13400
C1411       C  0.59086756  0.98867129  0.98204193     1.04200
O1412       O  0.60528266  0.88175911  0.99450633    -0.95400
O1413       O  0.56266207  0.84861662  0.96664304    -0.91200
O1414       O  0.58226433  0.81571515  0.94336823    -0.84300
C1415       C  0.56421833  0.81923925  0.95762600     1.10800
O1416       O  0.54558919  0.00679170  0.91157946    -0.97400
Zr1417     Zr  0.56398151  0.94709855  0.91901693     1.88900
O1418       O  0.54882571  0.84523150  0.91612578    -0.74100
O1419       O  0.53363299  0.92405418  0.97488372    -0.53300
O1420       O  0.51052588  0.96710271  0.93366179    -0.98000
O1421       O  0.54863816  0.95473554  0.88757725    -0.55200
O1422       O  0.52278779  0.89884479  0.91566963    -0.74600
C1423       C  0.52173477  0.86502131  0.91485101     0.97800
O1424       O  0.63843254  0.80109870  0.91923659    -0.63400
O1425       O  0.72158910  0.91145384  0.90200449    -0.58200
O1426       O  0.61629994  0.84398118  0.89254372    -0.94900
O1427       O  0.64447287  0.89053455  0.87985960    -0.93300
O1428       O  0.75019509  0.90423968  0.93684095    -0.93700
O1429       O  0.71793988  0.84035971  0.94540088    -0.92400
C1430       C  0.62852030  0.86072567  0.87903599     1.16600
H1431       H  0.70976416  0.96069384  0.92927663     0.32600
H1432       H  0.63705738  0.84863870  0.95910724     0.43400
H1433       H  0.59113728  0.90360853  0.89400630     0.36900
H1434       H  0.56929941  0.97582719  0.95125798     0.33400
H1435       H  0.68985923  0.88412698  0.98711972     0.25200
H1436       H  0.51830062  0.91593476  0.96499310     0.31100
H1437       H  0.49120912  0.96026990  0.92545896     0.37000
H1438       H  0.76302265  0.92100142  0.94463973     0.31500
H1439       H  0.72191968  0.89412542  0.89212478     0.30400
H1440       H  0.69991036  0.94305409  0.87077720     0.32100
H1441       H  0.53956600  0.93155576  0.88352303     0.31000
H1442       H  0.74079504  0.84131863  0.95174924     0.35000
H1443       H  0.66317625  0.80730147  0.91657675     0.27800
H1444       H  0.65218752  0.05576082  0.96239675     0.32000
H1445       H  0.56672186  0.02156786  0.91367580     0.34800
H1446       H  0.73529323  0.93185751  0.89752554     0.27500
H1447       H  0.63954818  0.79004814  0.93119152     0.40300
H1448       H  0.58747278  0.89188184  0.00261598     0.30400
H1449       H  0.68786419  0.84715819  0.97790896     0.38000
H1450       H  0.57129878  0.95786985  0.88129090     0.29900
H1451       H  0.52826694  0.90783987  0.98487803     0.29900
H1452       H  0.62385139  0.06033913  0.94730042     0.30200
Zr1453     Zr  0.24496546  0.38364607  0.80300620     2.17500
O1454       O  0.30802873  0.38768029  0.79771882    -0.52200
O1455       O  0.24806572  0.43634025  0.78360721    -0.75400
O1456       O  0.26207738  0.34306094  0.77795255    -0.82200
O1457       O  0.24884845  0.41562752  0.85313807    -0.83900
O1458       O  0.21244181  0.33526161  0.76176121    -0.79500
O1459       O  0.28402025  0.40426053  0.82951790    -0.91200
O1460       O  0.19343755  0.45996886  0.78075206    -0.77100
O1461       O  0.19184072  0.38855023  0.78539092    -0.86600
O1462       O  0.20620438  0.42362572  0.81779292    -0.86300
O1463       O  0.21725457  0.32525010  0.80018099    -0.73100
O1464       O  0.23210355  0.35699163  0.83145224    -0.85200
Zr1465     Zr  0.11662652  0.34362445  0.82595178     2.26400
Zr1466     Zr  0.16375037  0.33133111  0.78257765     2.06300
Zr1467     Zr  0.19129130  0.39625239  0.84549295     2.10000
Zr1468     Zr  0.15394027  0.42840826  0.80029817     1.78800
O1469       O  0.21166324  0.39886247  0.87627125    -0.94000
O1470       O  0.12063518  0.43360908  0.77259489    -0.41800
O1471       O  0.13890942  0.40272118  0.82855324    -0.78400
O1472       O  0.12603352  0.37161609  0.79763445    -0.97100
O1473       O  0.15457229  0.30465384  0.81058615    -0.90400
O1474       O  0.16901128  0.33762338  0.84328698    -0.93300
C1475       C  0.22614470  0.45859954  0.77687489     1.00500
C1476       C  0.27920187  0.41476458  0.84606971     1.13400
C1477       C  0.24467538  0.32802168  0.76503299     1.04200
O1478       O  0.13735715  0.35186469  0.75482223    -0.95400
O1479       O  0.10408532  0.30152520  0.78145429    -0.91200
O1480       O  0.07372909  0.31598910  0.80650610    -0.84300
C1481       C  0.07596774  0.30048096  0.79135514     1.10800
O1482       O  0.26858079  0.28706403  0.83302135    -0.97400
Zr1483     Zr  0.20647335  0.29928875  0.82809080     1.88900
O1484       O  0.10791550  0.28238552  0.83372109    -0.74100
O1485       O  0.17203672  0.27173878  0.77116017    -0.53300
O1486       O  0.22856075  0.24699752  0.81298798    -0.98000
O1487       O  0.21216043  0.28027438  0.85907198    -0.55200
O1488       O  0.16081689  0.25541053  0.83195820    -0.74600
C1489       C  0.12739196  0.25495073  0.83431063     0.97800
O1490       O  0.05891611  0.36926647  0.83111619    -0.63400
O1491       O  0.17038884  0.45635320  0.84941981    -0.58200
O1492       O  0.10581811  0.34930710  0.85763486    -0.94900
O1493       O  0.15135545  0.38085122  0.86906233    -0.93300
O1494       O  0.15845144  0.48738732  0.81303973    -0.93700
O1495       O  0.09921080  0.45976101  0.80563593    -0.92400
C1496       C  0.12279454  0.36336619  0.87068102     1.16600
H1497       H  0.21729901  0.44631883  0.81962693     0.32600
H1498       H  0.10403104  0.37392883  0.79127608     0.43400
H1499       H  0.16548103  0.32603093  0.85458011     0.36900
H1500       H  0.23156991  0.30664267  0.79540930     0.33400
H1501       H  0.11785431  0.45931163  0.77074067     0.25200
H1502       H  0.19756979  0.26725281  0.77217660     0.31100
H1503       H  0.21089396  0.24182607  0.80361428     0.37000
H1504       H  0.15792818  0.50360470  0.80267878     0.31500
H1505       H  0.14799534  0.45376808  0.85600114     0.30400
H1506       H  0.21846278  0.37433683  0.87923446     0.32100
H1507       H  0.23406326  0.29147522  0.86349943     0.31000
H1508       H  0.08277983  0.44140334  0.81001555     0.35000
H1509       H  0.06369423  0.39111215  0.83796318     0.27800
H1510       H  0.31038077  0.39358081  0.78490513     0.32000
H1511       H  0.28095338  0.30144975  0.82394968     0.34800
H1512       H  0.18684436  0.46684602  0.85821789     0.27500
H1513       H  0.05119699  0.37782734  0.81925306     0.40300
H1514       H  0.15486933  0.36831143  0.74965953     0.30400
H1515       H  0.13726041  0.42628536  0.76317969     0.38000
H1516       H  0.21766953  0.25480993  0.85834830     0.29900
H1517       H  0.16143374  0.25622598  0.78032668     0.29900
H1518       H  0.31672069  0.36318066  0.79876645     0.30200
Zr1519     Zr  0.39412455  0.52463072  0.94290837     2.17500
O1520       O  0.38975472  0.46091898  0.94666030    -0.52200
O1521       O  0.34280806  0.52381622  0.96332327    -0.75400
O1522       O  0.43281077  0.50540506  0.96818527    -0.82200
O1523       O  0.37639402  0.51872019  0.89077669    -0.83900
O1524       O  0.43449871  0.55512499  0.98419082    -0.79500
O1525       O  0.36893304  0.48829995  0.91654941    -0.91200
O1526       O  0.31748117  0.57799896  0.96330366    -0.77100
O1527       O  0.38891099  0.57805485  0.96020143    -0.86600
O1528       O  0.35716009  0.56418847  0.92658363    -0.86300
O1529       O  0.45268457  0.55157366  0.94688063    -0.73100
O1530       O  0.42424245  0.53619882  0.91517122    -0.85200
Zr1531     Zr  0.43925474  0.65190144  0.92094095     2.26400
Zr1532     Zr  0.44604914  0.60494318  0.96460553     2.06300
Zr1533     Zr  0.38812961  0.57798361  0.89956369     2.10000
Zr1534     Zr  0.35150103  0.61650473  0.94408367     1.78800
O1535       O  0.38104260  0.56153585  0.86829203    -0.94000
O1536       O  0.34058192  0.64757982  0.97199837    -0.41800
O1537       O  0.38037882  0.63059275  0.91643127    -0.78400
O1538       O  0.40821057  0.64328858  0.94837789    -0.97100
O1539       O  0.47574425  0.61290335  0.93735086    -0.90400
O1540       O  0.44665378  0.59974649  0.90346643    -0.93300
C1541       C  0.31960753  0.54608965  0.96882941     1.00500
C1542       C  0.36641383  0.49119470  0.89909446     1.13400
C1543       C  0.44598675  0.52409603  0.98108601     1.04200
O1544       O  0.41940071  0.63556425  0.98964785    -0.95400
O1545       O  0.47864331  0.66322747  0.96570465    -0.91200
O1546       O  0.46355683  0.69509647  0.94116565    -0.84300
C1547       C  0.47921642  0.69204003  0.95622892     1.10800
O1548       O  0.49518656  0.49823432  0.91955869    -0.97400
Zr1549     Zr  0.48177621  0.56102074  0.91982168     1.88900
O1550       O  0.50162125  0.66033521  0.91685304    -0.74100
O1551       O  0.49992879  0.59370839  0.98128748    -0.53300
O1552       O  0.53605082  0.53951588  0.93317006    -0.98000
O1553       O  0.49776542  0.55033692  0.88881372    -0.55200
O1554       O  0.52662708  0.60616258  0.91727984    -0.74600
C1555       C  0.52837049  0.63992861  0.91647074     0.97800
O1556       O  0.41765967  0.71082407  0.91392065    -0.73000
O1557       O  0.32708864  0.59569415  0.89581528    -0.58200
O1558       O  0.43742190  0.66289104  0.88928871    -0.94900
O1559       O  0.40773305  0.61763332  0.87627810    -0.93300
O1560       O  0.29388589  0.61398244  0.92988835    -0.93700
O1561       O  0.32831814  0.67546409  0.93894518    -0.92400
C1562       C  0.42576789  0.64621737  0.87560882     1.16600
H1563       H  0.33454866  0.55345487  0.92420277     0.32600
H1564       H  0.40562937  0.66540758  0.95462743     0.43400
H1565       H  0.45997354  0.60316724  0.89269072     0.36900
H1566       H  0.47078527  0.53705451  0.95200831     0.33400
H1567       H  0.31467111  0.64952845  0.97272248     0.25200
H1568       H  0.51815252  0.59044736  0.97203925     0.31100
H1569       H  0.53525932  0.54767124  0.94571047     0.37000
H1570       H  0.27704445  0.61859350  0.93965381     0.31500
H1571       H  0.32740482  0.61253045  0.88571046     0.30400
H1572       H  0.35662076  0.56790090  0.86506114     0.32100
H1573       H  0.48495719  0.52849417  0.88551179     0.31000
H1574       H  0.34820275  0.69157809  0.94161017     0.35000
H1575       H  0.39672615  0.70688985  0.90627884     0.27800
H1576       H  0.38287532  0.45738570  0.95926820     0.32000
H1577       H  0.47253213  0.48631503  0.92207854     0.34800
H1578       H  0.31502202  0.57447540  0.89106941     0.27500
H1579       H  0.40782434  0.71978226  0.92525794     0.40300
H1580       H  0.43955661  0.64433795  0.99678572     0.30400
H1581       H  0.34687889  0.63058887  0.98151336     0.38000
H1582       H  0.52277687  0.54327115  0.88933641     0.29900
H1583       H  0.50608085  0.61631658  0.98713331     0.29900
H1584       H  0.41425131  0.45231081  0.94596157     0.30200
Zr1585     Zr  0.14434664  0.49765124  0.44260618     2.17500
O1586       O  0.14645890  0.56129012  0.44710833    -0.52200
O1587       O  0.19759845  0.50141654  0.46151025    -0.75400
O1588       O  0.10522980  0.51446451  0.46829244    -0.82200
O1589       O  0.16584403  0.50019158  0.39074825    -0.83900
O1590       O  0.10315122  0.46427072  0.48386590    -0.79500
O1591       O  0.16607729  0.53476834  0.41536319    -0.91200
O1592       O  0.21968741  0.44624991  0.46535906    -0.77100
O1593       O  0.14656568  0.44487262  0.46077738    -0.86600
O1594       O  0.18399667  0.45684903  0.42906016    -0.86300
O1595       O  0.08532951  0.47133351  0.44531746    -0.73100
O1596       O  0.11911905  0.48383547  0.41399305    -0.85200
Zr1597     Zr  0.10306996  0.36848108  0.42050189     2.26400
Zr1598     Zr  0.08915773  0.41743045  0.46317523     2.06300
Zr1599     Zr  0.15814549  0.44127909  0.40097366     2.10000
Zr1600     Zr  0.18624401  0.40516789  0.44737280     1.78800
O1601       O  0.18402122  0.45266012  0.37171061    -0.94000
O1602       O  0.18622073  0.37957885  0.47721207    -0.41800
O1603       O  0.16254971  0.38939449  0.41865860    -0.78400
O1604       O  0.12928797  0.37809070  0.44920852    -0.97100
O1605       O  0.06430510  0.40811164  0.43482155    -0.90400
O1606       O  0.09874719  0.42048697  0.40265679    -0.93300
C1607       C  0.21960029  0.47946996  0.46843410     1.00500
C1608       C  0.17078818  0.53003464  0.39807969     1.13400
C1609       C  0.09246781  0.49567805  0.48127323     1.04200
O1610       O  0.10200085  0.39050319  0.49195669    -0.95400
O1611       O  0.05946168  0.35772743  0.46467098    -0.91200
O1612       O  0.07337783  0.32662429  0.43975919    -0.84300
C1613       C  0.05785443  0.32941438  0.45484587     1.10800
O1614       O  0.04937841  0.52222509  0.41203492    -0.97400
Zr1615     Zr  0.06081066  0.45984200  0.41703333     1.88900
O1616       O  0.04187253  0.36088504  0.41352782    -0.74100
O1617       O  0.02925251  0.43073646  0.47237045    -0.53300
O1618       O  0.00871456  0.48345033  0.43150633    -0.98000
O1619       O  0.04348823  0.46886303  0.38596621    -0.55200
O1620       O  0.01612993  0.41473807  0.41297217    -0.74600
C1621       C  0.01502134  0.38092334  0.41215993     0.97800
O1622       O  0.12515201  0.30921524  0.41497822    -0.63400
O1623       O  0.21905617  0.42178708  0.40214329    -0.58200
O1624       O  0.10969419  0.35671574  0.38898287    -0.94900
O1625       O  0.13952157  0.40298109  0.37705794    -0.93300
O1626       O  0.24662932  0.40204576  0.43677306    -0.93700
O1627       O  0.21123867  0.34622187  0.44571355    -0.92400
C1628       C  0.12204489  0.37422268  0.37573027     1.16600
H1629       H  0.20696218  0.46744235  0.42763291     0.32600
H1630       H  0.13080076  0.35621978  0.45578430     0.43400
H1631       H  0.08669235  0.41700509  0.39149819     0.36900
H1632       H  0.06752740  0.48673245  0.45002843     0.33400
H1633       H  0.21139752  0.37717098  0.48036565     0.25200
H1634       H  0.02905130  0.42701371  0.48543923     0.31100
H1635       H  0.00249863  0.46572540  0.44067233     0.37000
H1636       H  0.26128164  0.40115035  0.44771033     0.31500
H1637       H  0.22157939  0.40560977  0.39186108     0.30400
H1638       H  0.16439338  0.45941365  0.36369244     0.32100
H1639       H  0.03423690  0.44584719  0.38178314     0.31000
H1640       H  0.19114537  0.33076904  0.44251078     0.35000
H1641       H  0.13283947  0.30038643  0.42679545     0.27800
H1642       H  0.15596693  0.56447737  0.45932013     0.32000
H1643       H  0.06336527  0.53451489  0.42132823     0.34800
H1644       H  0.23309513  0.44286240  0.39887365     0.27500
H1645       H  0.10411113  0.29491005  0.41196168     0.40300
H1646       H  0.08300055  0.39872451  0.49991750     0.30400
H1647       H  0.17759672  0.39861310  0.48508706     0.38000
H1648       H  0.06579627  0.47224660  0.37939533     0.29900
H1649       H  0.02655220  0.45647875  0.47079809     0.29900
H1650       H  0.12161999  0.56879801  0.44786985     0.30200
Zr1651     Zr  0.28373016  0.63799523  0.29880605     2.17500
O1652       O  0.22039008  0.63570270  0.29389552    -0.52200
O1653       O  0.28137682  0.58629908  0.27835844    -0.75400
O1654       O  0.26612487  0.67968214  0.27443296    -0.82200
O1655       O  0.28132511  0.60469832  0.34925739    -0.83900
O1656       O  0.31610012  0.68017598  0.25887260    -0.79500
O1657       O  0.24566567  0.61605470  0.32559558    -0.91200
O1658       O  0.33432881  0.55865488  0.27875805    -0.77100
O1659       O  0.33690670  0.63586300  0.28108904    -0.86600
O1660       O  0.32367993  0.59844809  0.31324221    -0.86300
O1661       O  0.31121906  0.69698817  0.29672127    -0.73100
O1662       O  0.29648413  0.66353030  0.32745057    -0.85200
Zr1663     Zr  0.41218998  0.67872134  0.32144893     2.26400
Zr1664     Zr  0.36459369  0.69363316  0.27875575     2.06300
Zr1665     Zr  0.33831649  0.62507002  0.34136887     2.10000
Zr1666     Zr  0.37527202  0.59533769  0.29514997     1.78800
O1667       O  0.31641461  0.63511910  0.37146651    -0.94000
O1668       O  0.39795141  0.59042583  0.26486636    -0.41800
O1669       O  0.39006738  0.61949176  0.32382583    -0.78400
O1670       O  0.40266116  0.65244484  0.29281768    -0.97100
O1671       O  0.37319707  0.71843470  0.30719677    -0.90400
O1672       O  0.36100821  0.68351694  0.33952954    -0.93300
C1673       C  0.30249395  0.56152116  0.27340885     1.00500
C1674       C  0.25088048  0.60555294  0.34220107     1.13400
C1675       C  0.28540750  0.69227141  0.26167786     1.04200
O1676       O  0.39172672  0.67861731  0.25037724    -0.95400
O1677       O  0.42383885  0.72563789  0.27859812    -0.91200
O1678       O  0.45461173  0.70975734  0.30336801    -0.84300
C1679       C  0.45212428  0.72644761  0.28856138     1.10800
O1680       O  0.25951009  0.73674132  0.32686777    -0.97400
Zr1681     Zr  0.32149576  0.72134432  0.32502644     1.88900
O1682       O  0.41863908  0.73956089  0.33021729    -0.74100
O1683       O  0.35017372  0.75190133  0.26724095    -0.53300
O1684       O  0.30225686  0.77790843  0.31312173    -0.98000
O1685       O  0.31028724  0.72852120  0.35682606    -0.55200
O1686       O  0.36513093  0.76536121  0.33150012    -0.74600
C1687       C  0.39867201  0.76610561  0.33284503     0.97800
O1688       O  0.47143547  0.65479649  0.32351443    -0.63400
O1689       O  0.35404986  0.56435610  0.34821128    -0.58200
O1690       O  0.42585490  0.66935274  0.35249589    -0.94900
O1691       O  0.38164256  0.63645963  0.36419239    -0.93300
O1692       O  0.38136263  0.53601458  0.30727109    -0.93700
O1693       O  0.43563945  0.57422456  0.29587134    -0.92400
C1694       C  0.41045472  0.65373878  0.36550194     1.16600
H1695       H  0.31298608  0.57552030  0.31488759     0.32600
H1696       H  0.42454572  0.65066511  0.28637899     0.43400
H1697       H  0.36570080  0.69414573  0.35098346     0.36900
H1698       H  0.29659969  0.71561974  0.29228175     0.33400
H1699       H  0.39622935  0.56501550  0.26192129     0.25200
H1700       H  0.35831384  0.76842370  0.27662539     0.31100
H1701       H  0.31081664  0.77830319  0.30066284     0.37000
H1702       H  0.36153654  0.53311987  0.31566210     0.31500
H1703       H  0.38006443  0.56444114  0.34868891     0.30400
H1704       H  0.32082586  0.61292331  0.37806986     0.32100
H1705       H  0.29032123  0.71246273  0.35935322     0.31000
H1706       H  0.44273707  0.57570025  0.30857467     0.35000
H1707       H  0.48308008  0.66805601  0.33327844     0.27800
H1708       H  0.21735207  0.63162858  0.28093035     0.32000
H1709       H  0.24779074  0.72139609  0.31794323     0.34800
H1710       H  0.34673748  0.56092761  0.36076147     0.27500
H1711       H  0.46825138  0.63063312  0.32827524     0.40300
H1712       H  0.41684265  0.67473147  0.25323301     0.30400
H1713       H  0.37997304  0.60177436  0.25722219     0.38000
H1714       H  0.30035723  0.75252200  0.35792951     0.29900
H1715       H  0.36670711  0.75564430  0.25723574     0.29900
H1716       H  0.21219922  0.66014950  0.29587258     0.30200
Zr1717     Zr  0.89586947  0.02886653  0.44357069     2.17500
O1718       O  0.89145386  0.96497956  0.44694237    -0.52200
O1719       O  0.84504249  0.02709831  0.46440300    -0.75400
O1720       O  0.93543345  0.01193411  0.46896629    -0.82200
O1721       O  0.87149980  0.02289744  0.39176496    -0.83900
O1722       O  0.93916912  0.06188862  0.48529701    -0.79500
O1723       O  0.87432392  0.99011302  0.41705465    -0.91200
O1724       O  0.81637327  0.07958372  0.46333125    -0.77100
O1725       O  0.88887534  0.08229909  0.46060604    -0.86600
O1726       O  0.85747656  0.06700691  0.42724906    -0.86300
O1727       O  0.95348624  0.05769594  0.44730702    -0.73100
O1728       O  0.92589353  0.04180489  0.41604282    -0.85200
Zr1729     Zr  0.93448492  0.15822514  0.42107248     2.26400
Zr1730     Zr  0.94521185  0.11115318  0.46473193     2.06300
Zr1731     Zr  0.88784126  0.08096415  0.40010097     2.10000
Zr1732     Zr  0.84974586  0.11931547  0.44464914     1.78800
O1733       O  0.89940022  0.05727559  0.37044994    -0.94000
O1734       O  0.84304445  0.15056482  0.47301197    -0.41800
O1735       O  0.87708261  0.13336865  0.41668321    -0.78400
O1736       O  0.90532387  0.14835082  0.44890213    -0.97100
O1737       O  0.97365270  0.12165706  0.43731351    -0.90400
O1738       O  0.94462988  0.10626120  0.40392865    -0.93300
C1739       C  0.82022639  0.04818119  0.46928915     1.00500
C1740       C  0.86794771  0.99366870  0.39984904     1.13400
C1741       C  0.94839926  0.03004877  0.48218564     1.04200
O1742       O  0.92052214  0.13825708  0.49131521    -0.95400
O1743       O  0.97583974  0.17061146  0.46579076    -0.91200
O1744       O  0.96105311  0.20116952  0.44077568    -0.84300
C1745       C  0.97680700  0.19886349  0.45586589     1.10800
O1746       O  0.00089980  0.00873444  0.41660892    -0.97400
Zr1747     Zr  0.98221158  0.06965505  0.42030055     1.88900
O1748       O  0.99482842  0.17023944  0.41445235    -0.74100
O1749       O  0.00199304  0.10062295  0.47882661    -0.53300
O1750       O  0.03277974  0.05524891  0.43896032    -0.98000
O1751       O  0.00278667  0.05633004  0.39027240    -0.55200
O1752       O  0.02299581  0.11759169  0.41473000    -0.74600
C1753       C  0.02245108  0.15132512  0.41328784     0.97800
O1754       O  0.90751967  0.21518452  0.41489387    -0.63400
O1755       O  0.82758958  0.09418181  0.39142038    -0.58200
O1756       O  0.93056218  0.16982664  0.38950428    -0.94900
O1757       O  0.90189683  0.12317050  0.37723936    -0.93300
O1758       O  0.79035486  0.11502193  0.43259881    -0.93700
O1759       O  0.82365257  0.17606564  0.43709332    -0.92400
C1760       C  0.91765448  0.15289793  0.37618860     1.16600
H1761       H  0.83521897  0.05555998  0.42484828     0.32600
H1762       H  0.90217293  0.17037442  0.45516922     0.43400
H1763       H  0.95687740  0.11066586  0.39290465     0.36900
H1764       H  0.97196240  0.04372080  0.45246003     0.33400
H1765       H  0.82984047  0.17238876  0.47037382     0.25200
H1766       H  0.01947104  0.10900164  0.47000969     0.31100
H1767       H  0.05218893  0.05112962  0.43045267     0.37000
H1768       H  0.79288039  0.11986817  0.41968866     0.31500
H1769       H  0.82844581  0.11885675  0.38710189     0.30400
H1770       H  0.87835251  0.06292342  0.36318907     0.32100
H1771       H  0.01191231  0.07890721  0.38548076     0.31000
H1772       H  0.84322941  0.19323186  0.43817993     0.35000
H1773       H  0.90192390  0.22521415  0.42674023     0.27800
H1774       H  0.87227378  0.96122288  0.45564313     0.32000
H1775       H  0.98845129  0.99565165  0.42614424     0.34800
H1776       H  0.82338017  0.07994229  0.38054624     0.27500
H1777       H  0.92689511  0.23015234  0.41031531     0.40300
H1778       H  0.93999025  0.15247035  0.49641612     0.30400
H1779       H  0.82662790  0.13622314  0.48025267     0.38000
H1780       H  0.98113806  0.05159058  0.38328738     0.29900
H1781       H  0.00332726  0.11794547  0.48869029     0.29900
H1782       H  0.91304406  0.95742301  0.45324719     0.30200
Zr1783     Zr  0.75433072  0.88990486  0.30062786     2.17500
O1784       O  0.81773283  0.89057001  0.29596883    -0.52200
O1785       O  0.76043540  0.94168796  0.28058044    -0.75400
O1786       O  0.77048364  0.84825099  0.27615298    -0.82200
O1787       O  0.75713764  0.92370636  0.35053366    -0.83900
O1788       O  0.72062848  0.84501614  0.26018348    -0.79500
O1789       O  0.79313282  0.90816580  0.32786764    -0.91200
O1790       O  0.70712509  0.96798518  0.27746864    -0.77100
O1791       O  0.70180992  0.89358947  0.28235721    -0.86600
O1792       O  0.71593668  0.93216947  0.31393922    -0.86300
O1793       O  0.72522398  0.83185069  0.29863023    -0.73100
O1794       O  0.73931566  0.86637564  0.32941019    -0.85200
Zr1795     Zr  0.62379947  0.85617095  0.32263635     2.26400
Zr1796     Zr  0.67189540  0.83693997  0.28054768     2.06300
Zr1797     Zr  0.69910056  0.90783751  0.34216169     2.10000
Zr1798     Zr  0.66478070  0.93643762  0.29545842     1.78800
O1799       O  0.71683842  0.90582199  0.37340480    -0.94000
O1800       O  0.63803468  0.94019064  0.26593058    -0.41800
O1801       O  0.64775654  0.91473409  0.32431345    -0.78400
O1802       O  0.63520124  0.88041595  0.29375672    -0.97100
O1803       O  0.66105810  0.81394096  0.30917257    -0.90400
O1804       O  0.67501042  0.84993726  0.34078264    -0.93300
C1805       C  0.73992392  0.96544673  0.27395963     1.00500
C1806       C  0.78783173  0.91972705  0.34423151     1.13400
C1807       C  0.75185819  0.83442647  0.26341939     1.04200
O1808       O  0.64546162  0.85152491  0.25188073    -0.95400
O1809       O  0.61102089  0.80851555  0.27979147    -0.91200
O1810       O  0.58048050  0.82737049  0.30395523    -0.84300
C1811       C  0.58239053  0.80990808  0.28936081     1.10800
O1812       O  0.77458188  0.79512701  0.33155193    -0.97400
Zr1813     Zr  0.71263022  0.80915980  0.32707926     1.88900
O1814       O  0.61345600  0.79670027  0.33223289    -0.74100
O1815       O  0.68251000  0.77654430  0.27084903    -0.53300
O1816       O  0.72792374  0.75474416  0.31163981    -0.98000
O1817       O  0.72378788  0.79310579  0.35812840    -0.55200
O1818       O  0.66588118  0.76873730  0.33420471    -0.74600
C1819       C  0.63228278  0.76956798  0.33528771     0.97800
O1820       O  0.56488028  0.88055434  0.32531033    -0.63400
O1821       O  0.68580161  0.97019420  0.34572358    -0.58200
O1822       O  0.61105446  0.86638366  0.35367728    -0.94900
O1823       O  0.65646915  0.89779053  0.36534219    -0.93300
O1824       O  0.66498074  0.99642357  0.30713694    -0.93700
O1825       O  0.60735320  0.96439849  0.29674047    -0.92400
C1826       C  0.62719309  0.88137982  0.36667087     1.16600
H1827       H  0.72768241  0.95462373  0.31538174     0.32600
H1828       H  0.61358290  0.88278244  0.28706899     0.43400
H1829       H  0.67019712  0.83995785  0.35235038     0.36900
H1830       H  0.73965053  0.81286782  0.29431667     0.33400
H1831       H  0.64249164  0.96470619  0.26194287     0.25200
H1832       H  0.70745150  0.77194743  0.27377420     0.31100
H1833       H  0.72684499  0.73620103  0.32093466     0.37000
H1834       H  0.69002748  0.00337795  0.30795552     0.31500
H1835       H  0.67049640  0.97121096  0.35636918     0.30400
H1836       H  0.71426972  0.93027933  0.37786057     0.32100
H1837       H  0.70039924  0.79004781  0.36368173     0.31000
H1838       H  0.59394168  0.95020581  0.30550197     0.35000
H1839       H  0.55226149  0.86435449  0.33347504     0.27800
H1840       H  0.82094947  0.89409686  0.28298373     0.32000
H1841       H  0.77501548  0.77158291  0.33727257     0.34800
H1842       H  0.70824670  0.98099290  0.34968358     0.27500
H1843       H  0.56790586  0.90265236  0.33219492     0.40300
H1844       H  0.64443038  0.82878565  0.24539972     0.30400
H1845       H  0.65320922  0.92555746  0.25821880     0.38000
H1846       H  0.73350005  0.81482401  0.36362095     0.29900
H1847       H  0.66925805  0.76177780  0.27942818     0.29900
H1848       H  0.82536226  0.86602232  0.29822520     0.30200
Zr1849     Zr  0.39434636  0.99931548  0.44696851     2.17500
O1850       O  0.39188345  0.06189539  0.45419548    -0.52200
O1851       O  0.34369000  0.00124597  0.46761064    -0.75400
O1852       O  0.37002858  0.03576313  0.42000219    -0.82200
O1853       O  0.44316703  0.96936553  0.48749348    -0.83900
O1854       O  0.36814659  0.00190473  0.39501820    -0.79500
O1855       O  0.44548922  0.01351138  0.46772176    -0.91200
O1856       O  0.31597513  0.94798521  0.46600754    -0.77100
O1857       O  0.35876869  0.96040839  0.42950717    -0.86600
O1858       O  0.38742188  0.94531117  0.46435582    -0.86300
O1859       O  0.42677899  0.98845938  0.42001784    -0.73100
O1860       O  0.44852644  0.96876609  0.45191208    -0.85200
Zr1861     Zr  0.44069444  0.87148998  0.42560321     2.26400
Zr1862     Zr  0.39237822  0.94679302  0.40334620     2.06300
Zr1863     Zr  0.44269199  0.91590827  0.46964660     2.10000
Zr1864     Zr  0.35023012  0.90855377  0.44699893     1.78800
O1865       O  0.49964089  0.91944935  0.48439908    -0.94000
O1866       O  0.29459709  0.91543784  0.43116084    -0.41800
O1867       O  0.40572020  0.87911436  0.45203143    -0.78400
O1868       O  0.38247118  0.89435604  0.42027690    -0.97100
O1869       O  0.44937689  0.92355528  0.40847650    -0.90400
O1870       O  0.47565464  0.90957636  0.44342072    -0.93300
C1871       C  0.31932601  0.97935202  0.47232437     1.00500
C1872       C  0.45763266  0.99781533  0.48195580     1.13400
C1873       C  0.36300304  0.03116908  0.40287164     1.04200
O1874       O  0.33556494  0.93425977  0.38962859    -0.95400
O1875       O  0.40278488  0.90205386  0.38119291    -0.91200
O1876       O  0.43608148  0.85995318  0.39419530    -0.84300
C1877       C  0.42059426  0.87358349  0.38068121     1.10800
O1878       O  0.50085807  0.02441497  0.42581997    -0.97400
Zr1879     Zr  0.48283115  0.96265091  0.42641320     1.88900
O1880       O  0.50315665  0.86585421  0.41819876    -0.74100
O1881       O  0.41977583  0.97365975  0.37726268    -0.53300
O1882       O  0.50372920  0.97578310  0.39639785    -0.98000
O1883       O  0.52896180  0.97912750  0.44751877    -0.55200
O1884       O  0.52688818  0.92052407  0.42037827    -0.74600
C1885       C  0.52936216  0.88741530  0.41774384     0.97800
O1886       O  0.42105154  0.81101894  0.42039730    -0.63400
O1887       O  0.41367856  0.89331877  0.49624045    -0.58200
O1888       O  0.46487146  0.82756836  0.44529137    -0.94900
O1889       O  0.47136320  0.85567591  0.47183912    -0.93300
O1890       O  0.33792801  0.87404033  0.47371123    -0.93700
O1891       O  0.31900222  0.85368498  0.44081389    -0.92400
C1892       C  0.47586585  0.82852304  0.46142416     1.16600
H1893       H  0.37828530  0.94933205  0.47614250     0.32600
H1894       H  0.36908285  0.87772900  0.41320490     0.43400
H1895       H  0.49767070  0.89938666  0.44718420     0.36900
H1896       H  0.43050330  0.00990789  0.41331144     0.33400
H1897       H  0.29102660  0.94122031  0.43015516     0.25200
H1898       H  0.44132630  0.95976873  0.37510989     0.31100
H1899       H  0.50352110  0.95289324  0.39003783     0.37000
H1900       H  0.33742624  0.89135642  0.48359267     0.31500
H1901       H  0.41944649  0.86788123  0.49649940     0.30400
H1902       H  0.49650424  0.90639097  0.49573227     0.32100
H1903       H  0.55007376  0.96596301  0.44372740     0.31000
H1904       H  0.33733372  0.83745583  0.43637846     0.35000
H1905       H  0.39951100  0.81308423  0.41302348     0.27800
H1906       H  0.41564722  0.07107706  0.45141326     0.32000
H1907       H  0.52280005  0.02512758  0.41875663     0.34800
H1908       H  0.42722459  0.90355554  0.50629923     0.27500
H1909       H  0.43878822  0.80056181  0.41234803     0.40300
H1910       H  0.31902312  0.95080605  0.39537916     0.30400
H1911       H  0.29945188  0.90758811  0.41882112     0.38000
H1912       H  0.52196120  0.96782142  0.45887510     0.29900
H1913       H  0.40404153  0.96768595  0.36714102     0.29900
H1914       H  0.39039869  0.06272735  0.46737811     0.30200
Zr1915     Zr  0.25190534  0.14185396  0.30408215     2.17500
O1916       O  0.31373716  0.13764378  0.29604931    -0.52200
O1917       O  0.25315986  0.08839849  0.28506881    -0.75400
O1918       O  0.28765925  0.11911127  0.33148840    -0.82200
O1919       O  0.22497206  0.18673722  0.26167124    -0.83900
O1920       O  0.25276942  0.11828083  0.35595628    -0.79500
O1921       O  0.26879757  0.18877286  0.28190930    -0.91200
O1922       O  0.20008183  0.06076669  0.28710081    -0.77100
O1923       O  0.21242697  0.10842093  0.32203959    -0.86600
O1924       O  0.19887195  0.13327472  0.28637293    -0.86300
O1925       O  0.24059797  0.17823689  0.32980358    -0.73100
O1926       O  0.22321833  0.19687418  0.29728282    -0.85200
Zr1927     Zr  0.12448758  0.18995641  0.32260143     2.26400
Zr1928     Zr  0.19920210  0.14523364  0.34713103     2.06300
Zr1929     Zr  0.17131947  0.18852520  0.27908691     2.10000
Zr1930     Zr  0.16104635  0.09833369  0.30436671     1.78800
O1931       O  0.17924539  0.24113864  0.26082387    -0.94000
O1932       O  0.16392763  0.04346953  0.32125278    -0.41800
O1933       O  0.13312520  0.15339024  0.29690005    -0.78400
O1934       O  0.14729385  0.13296424  0.33024537    -0.97100
O1935       O  0.17552721  0.20154160  0.34018703    -0.90400
O1936       O  0.16305854  0.22370740  0.30439214    -0.93300
C1937       C  0.23142825  0.06341435  0.28089993     1.00500
C1938       C  0.25447578  0.19917644  0.26701918     1.13400
C1939       C  0.28226088  0.11250794  0.34854915     1.04200
O1940       O  0.18049883  0.09090658  0.36175051    -0.95400
O1941       O  0.15755320  0.16609108  0.36877622    -0.91200
O1942       O  0.11219473  0.19187935  0.35410187    -0.84300
C1943       C  0.12798156  0.18201532  0.36837400     1.10800
O1944       O  0.27574579  0.25284426  0.32295361    -0.97400
Zr1945     Zr  0.21446830  0.23401850  0.32196666     1.88900
O1946       O  0.11566072  0.25222952  0.32672689    -0.74100
O1947       O  0.23058191  0.16815479  0.37310691    -0.53300
O1948       O  0.22797798  0.25727303  0.35152567    -0.98000
O1949       O  0.23067337  0.28008127  0.30082482    -0.55200
O1950       O  0.16965415  0.27800119  0.32637907    -0.74600
C1951       C  0.13600535  0.27919974  0.32725754     0.97800
O1952       O  0.06548030  0.16706068  0.32795478    -0.63400
O1953       O  0.14795020  0.15516831  0.25394211    -0.58200
O1954       O  0.08256434  0.21421517  0.30183900    -0.94900
O1955       O  0.11258918  0.21960741  0.27579160    -0.93300
O1956       O  0.12809904  0.08318043  0.27751912    -0.93700
O1957       O  0.10399978  0.07356985  0.31226866    -0.92400
C1958       C  0.08501406  0.22506520  0.28572089     1.16600
H1959       H  0.20316557  0.12265568  0.27490320     0.32600
H1960       H  0.13045989  0.12052126  0.33756161     0.43400
H1961       H  0.15320466  0.24527023  0.29978119     0.36900
H1962       H  0.26190454  0.18243019  0.33653172     0.33400
H1963       H  0.16116798  0.02460942  0.31221172     0.25200
H1964       H  0.22403584  0.19337582  0.37373067     0.31100
H1965       H  0.20500761  0.26414168  0.35660543     0.37000
H1966       H  0.12914095  0.05711810  0.27685639     0.31500
H1967       H  0.12231450  0.15397859  0.25612565     0.30400
H1968       H  0.16533293  0.23657114  0.24987481     0.32100
H1969       H  0.23319164  0.30174535  0.30809179     0.31000
H1970       H  0.08692846  0.09223491  0.30912667     0.35000
H1971       H  0.05922229  0.15415830  0.31689999     0.27800
H1972       H  0.32040477  0.11306935  0.29892858     0.32000
H1973       H  0.28787798  0.23686475  0.31455521     0.34800
H1974       H  0.15043423  0.17121809  0.24359462     0.27500
H1975       H  0.06850171  0.14828460  0.33701309     0.40300
H1976       H  0.15562583  0.09475103  0.36504081     0.30400
H1977       H  0.18870326  0.04162789  0.32521753     0.38000
H1978       H  0.20927165  0.28399088  0.29354759     0.29900
H1979       H  0.21912727  0.15715452  0.38358481     0.29900
H1980       H  0.32624534  0.15224886  0.30501604     0.30200
Zr1981     Zr  0.64435126  0.53299046  0.44411712     2.17500
O1982       O  0.64601953  0.46994802  0.45030849    -0.52200
O1983       O  0.69593155  0.53062783  0.46414149    -0.75400
O1984       O  0.66932977  0.49885050  0.41661095    -0.82200
O1985       O  0.59702242  0.55884577  0.48569290    -0.83900
O1986       O  0.67400428  0.53545488  0.39275625    -0.79500
O1987       O  0.59627866  0.51509214  0.46557404    -0.91200
O1988       O  0.72294662  0.58432488  0.46351942    -0.77100
O1989       O  0.67933701  0.57369487  0.42763446    -0.86600
O1990       O  0.65031059  0.58580921  0.46244996    -0.86300
O1991       O  0.61175304  0.54559915  0.41738662    -0.73100
O1992       O  0.58865420  0.56070708  0.44980527    -0.85200
Zr1993     Zr  0.59602697  0.66123719  0.42536442     2.26400
Zr1994     Zr  0.64576403  0.58865720  0.40160127     2.06300
Zr1995     Zr  0.59404138  0.61274833  0.46834431     2.10000
Zr1996     Zr  0.68688027  0.62460103  0.44590045     1.78800
O1997       O  0.53748372  0.60206113  0.48253774    -0.94000
O1998       O  0.73993682  0.62017198  0.42783237    -0.41800
O1999       O  0.63067570  0.65199856  0.45186283    -0.78400
O2000       O  0.65442972  0.64017774  0.41945139    -0.97100
O2001       O  0.58832268  0.61040912  0.40714054    -0.90400
O2002       O  0.56143081  0.62111332  0.44211643    -0.93300
C2003       C  0.72021221  0.55239300  0.46911497     1.00500
C2004       C  0.58456264  0.52942758  0.48018114     1.13400
C2005       C  0.67796909  0.50512626  0.39983600     1.04200
O2006       O  0.70095354  0.61138175  0.38968091    -0.95400
O2007       O  0.62523895  0.63041970  0.37966959    -0.91200
O2008       O  0.59691814  0.67420547  0.39413038    -0.84300
C2009       C  0.60850128  0.65955659  0.37994814     1.10800
O2010       O  0.53718306  0.50816775  0.42152663    -0.97400
Zr2011     Zr  0.55505924  0.56969752  0.42394850     1.88900
O2012       O  0.53400082  0.66805502  0.41814707    -0.74100
O2013       O  0.62757767  0.55760772  0.37461603    -0.53300
O2014       O  0.53713030  0.55617793  0.39346261    -0.98000
O2015       O  0.50674506  0.55153452  0.44317780    -0.55200
O2016       O  0.51096558  0.61286395  0.41814832    -0.74600
C2017       C  0.50816941  0.64634482  0.41667482     0.97800
O2018       O  0.61894350  0.72042809  0.41990017    -0.63400
O2019       O  0.61936181  0.63521252  0.49600927    -0.58200
O2020       O  0.56835753  0.70205011  0.44545715    -0.94900
O2021       O  0.56243784  0.67154319  0.47138823    -0.93300
O2022       O  0.70329430  0.65497763  0.47335326    -0.93700
O2023       O  0.71518064  0.68161158  0.44118533    -0.92400
C2024       C  0.55682953  0.69920568  0.46139296     1.16600
H2025       H  0.66004693  0.58100400  0.47407941     0.32600
H2026       H  0.66723237  0.65782497  0.41278597     0.43400
H2027       H  0.53915990  0.63050839  0.44593324     0.36900
H2028       H  0.60868887  0.52468052  0.41018906     0.33400
H2029       H  0.75942551  0.62559355  0.43619803     0.25200
H2030       H  0.63962089  0.56972416  0.36464601     0.31100
H2031       H  0.52717831  0.57837250  0.38869883     0.37000
H2032       H  0.72914712  0.65247254  0.47422899     0.31500
H2033       H  0.62859687  0.61415640  0.50224657     0.30400
H2034       H  0.53774080  0.61716980  0.49330880     0.32100
H2035       H  0.48513541  0.55737451  0.43641411     0.31000
H2036       H  0.69586748  0.69747387  0.43748669     0.35000
H2037       H  0.59815163  0.73467253  0.41657772     0.27800
H2038       H  0.67087314  0.46315937  0.44854353     0.32000
H2039       H  0.55870541  0.49453515  0.42420616     0.34800
H2040       H  0.64059615  0.64836102  0.49222187     0.27500
H2041       H  0.62617477  0.72945182  0.43175839     0.40300
H2042       H  0.69537712  0.63513552  0.38499233     0.30400
H2043       H  0.74277860  0.59477056  0.42518170     0.38000
H2044       H  0.50717077  0.56857396  0.45317968     0.29900
H2045       H  0.60239482  0.56340363  0.37307772     0.29900
H2046       H  0.63316972  0.45884546  0.44024970     0.30200
Zr2047     Zr  0.78925307  0.39019929  0.30169776     2.17500
O2048       O  0.72753702  0.39099272  0.29302673    -0.52200
O2049       O  0.78704272  0.44348073  0.28274149    -0.75400
O2050       O  0.75333760  0.41428152  0.32885776    -0.82200
O2051       O  0.81999745  0.34650409  0.25962100    -0.83900
O2052       O  0.78624752  0.41323968  0.35418773    -0.79500
O2053       O  0.77524278  0.34280234  0.27904034    -0.91200
O2054       O  0.83979265  0.47157171  0.28531090    -0.77100
O2055       O  0.82692255  0.42386307  0.32061186    -0.86600
O2056       O  0.84313290  0.39987622  0.28489049    -0.86300
O2057       O  0.79941947  0.35363292  0.32746226    -0.73100
O2058       O  0.81985628  0.33625425  0.29519532    -0.85200
Zr2059     Zr  0.91670908  0.34285633  0.32228482     2.26400
Zr2060     Zr  0.83986061  0.38638467  0.34558386     2.06300
Zr2061     Zr  0.87256025  0.34549060  0.27797005     2.10000
Zr2062     Zr  0.87875352  0.43529197  0.30382660     1.78800
O2063       O  0.86862489  0.29536484  0.25773328    -0.94000
O2064       O  0.86636351  0.48516718  0.32329918    -0.41800
O2065       O  0.90870724  0.38074695  0.29679927    -0.78400
O2066       O  0.89259116  0.39972855  0.32960633    -0.97100
O2067       O  0.86458129  0.33065928  0.33872493    -0.90400
O2068       O  0.87932292  0.30936411  0.30321719    -0.93300
C2069       C  0.80843500  0.46885966  0.27890631     1.00500
C2070       C  0.79083753  0.33272325  0.26444166     1.13400
C2071       C  0.75765900  0.42038034  0.34611069     1.04200
O2072       O  0.85884308  0.43927460  0.36140073    -0.95400
O2073       O  0.87992929  0.36515670  0.36785828    -0.91200
O2074       O  0.92646121  0.33967055  0.35416868    -0.84300
C2075       C  0.90948195  0.34930196  0.36809113     1.10800
O2076       O  0.76597053  0.27866839  0.31701094    -0.97400
Zr2077     Zr  0.82674867  0.29857530  0.31971872     1.88900
O2078       O  0.92556748  0.28057889  0.32732369    -0.74100
O2079       O  0.80740618  0.36061260  0.37043665    -0.53300
O2080       O  0.81084656  0.27694546  0.34922450    -0.98000
O2081       O  0.81348157  0.25030919  0.29929048    -0.55200
O2082       O  0.87139195  0.25572981  0.32586433    -0.74600
C2083       C  0.90482782  0.25392959  0.32775665     0.97800
O2084       O  0.97544289  0.36557386  0.32873024    -0.63400
O2085       O  0.89813600  0.38279691  0.25492714    -0.58200
O2086       O  0.95921489  0.31818675  0.30183575    -0.94900
O2087       O  0.93050054  0.31333180  0.27531543    -0.93300
O2088       O  0.91042683  0.46149835  0.27890630    -0.93700
O2089       O  0.93606439  0.46042216  0.31119243    -0.92400
C2090       C  0.95746027  0.30744647  0.28564216     1.16600
H2091       H  0.83915181  0.41059774  0.27339406     0.32600
H2092       H  0.90873108  0.41233884  0.33729975     0.43400
H2093       H  0.88960714  0.28771786  0.29898812     0.36900
H2094       H  0.77780021  0.34922037  0.33382611     0.33400
H2095       H  0.88695771  0.48717028  0.33134746     0.25200
H2096       H  0.81551347  0.33587215  0.37116062     0.31100
H2097       H  0.80977728  0.25097705  0.34788628     0.37000
H2098       H  0.92693808  0.44296074  0.27497357     0.31500
H2099       H  0.92381273  0.38130370  0.25697397     0.30400
H2100       H  0.87781693  0.30425012  0.24622744     0.32100
H2101       H  0.81957965  0.22854767  0.30590207     0.31000
H2102       H  0.95201997  0.43987226  0.31176528     0.35000
H2103       H  0.97218701  0.38323471  0.33830793     0.27800
H2104       H  0.71899286  0.41454323  0.29665892     0.32000
H2105       H  0.75415407  0.28721907  0.32792527     0.34800
H2106       H  0.89410625  0.36971384  0.24367048     0.27500
H2107       H  0.98784183  0.34575881  0.33459534     0.40300
H2108       H  0.85608699  0.43337409  0.37419426     0.30400
H2109       H  0.86792949  0.50612613  0.31545029     0.38000
H2110       H  0.83153656  0.25218636  0.28984497     0.29900
H2111       H  0.81699301  0.37202754  0.38130768     0.29900
H2112       H  0.71596159  0.37431667  0.30133666     0.30200
C2113       C  0.69309360  0.47769857  0.38648951    -0.07000
C2114       C  0.68961252  0.48443908  0.36777506    -0.18100
C2115       C  0.70701501  0.46461928  0.35426493     0.10200
C2116       C  0.73011181  0.43689011  0.35882297    -0.06900
C2117       C  0.73192507  0.42869628  0.37744560    -0.18100
C2118       C  0.71372433  0.44793594  0.39094738     0.10300
S2119       S  0.70056919  0.47773581  0.33145071    -0.33100
S2120       S  0.71976911  0.43450538  0.41373936    -0.33100
H2121       H  0.68347799  0.43376984  0.41727637     0.28300
H2122       H  0.69397279  0.44309855  0.32556698     0.28300
H2123       H  0.67348747  0.50626359  0.36340185     0.18900
H2124       H  0.74879836  0.40735494  0.38174787     0.18900
C2125       C  0.05364061  0.24615202  0.27926165    -0.07000
C2126       C  0.02032484  0.22958936  0.27867372    -0.18100
C2127       C  0.98848973  0.24898742  0.27849091     0.10200
C2128       C  0.98898605  0.28640183  0.27940975    -0.06900
C2129       C  0.02227797  0.30295219  0.27927100    -0.18100
C2130       C  0.05408962  0.28358800  0.27900215     0.10300
S2131       S  0.94801117  0.22423682  0.27932845    -0.33100
S2132       S  0.09447196  0.30830774  0.28079807    -0.33100
H2133       H  0.11438902  0.28503260  0.27038655     0.28300
H2134       H  0.92871200  0.24814453  0.26890245     0.28300
H2135       H  0.01898656  0.20107218  0.27947489     0.18900
H2136       H  0.02360843  0.33140321  0.28050958     0.18900
C2137       C  0.49561108  0.79577268  0.46736916    -0.07000
C2138       C  0.47890017  0.76258801  0.46564744    -0.18100
C2139       C  0.49780738  0.73040367  0.46579341     0.10200
C2140       C  0.53498307  0.73030398  0.46754804    -0.06900
C2141       C  0.55159751  0.76342125  0.46972704    -0.18100
C2142       C  0.53262326  0.79560101  0.46976935     0.10300
S2143       S  0.47334286  0.69056384  0.46128997    -0.33100
S2144       S  0.55773114  0.83592291  0.47024449    -0.33100
H2145       H  0.53445007  0.85346648  0.48167423     0.28300
H2146       H  0.49511370  0.66841990  0.47145598     0.28300
H2147       H  0.45087065  0.76178793  0.46303517     0.18900
H2148       H  0.58005157  0.76446761  0.47019601     0.18900
C2149       C  0.30960429  0.09741223  0.36186200    -0.07000
C2150       C  0.30402251  0.10299289  0.38051823    -0.18100
C2151       C  0.32256414  0.08475524  0.39423574     0.10200
C2152       C  0.34815005  0.05924369  0.38991668    -0.06900
C2153       C  0.35561957  0.05563242  0.37131123    -0.18100
C2154       C  0.33726120  0.07409014  0.35758704     0.10300
S2155       S  0.31001577  0.09304876  0.41694327    -0.33100
S2156       S  0.34862784  0.06451775  0.33484816    -0.33100
H2157       H  0.35109414  0.10030154  0.33003769     0.28300
H2158       H  0.34487308  0.09651649  0.42300783     0.28300
H2159       H  0.28374007  0.12114264  0.38467583     0.18900
H2160       H  0.37541586  0.03688261  0.36720059     0.18900
C2161       C  0.61491264  0.73699235  0.34100085    -0.07000
C2162       C  0.63237460  0.70520786  0.33764752    -0.18100
C2163       C  0.62742950  0.67615905  0.34876423     0.10200
C2164       C  0.60389438  0.67942013  0.36324822    -0.06900
C2165       C  0.58064745  0.70813372  0.36366903    -0.18100
C2166       C  0.58626167  0.73730414  0.35285281     0.10300
S2167       S  0.65476812  0.63781568  0.34540922    -0.33100
S2168       S  0.56035958  0.77583641  0.35727266    -0.33100
H2169       H  0.55170752  0.78103450  0.33918534     0.28300
H2170       H  0.66822851  0.64753316  0.32864124     0.28300
H2171       H  0.65290265  0.70453863  0.32767131     0.18900
H2172       H  0.56075062  0.70987033  0.37396249     0.18900
C2173       C  0.61158735  0.87765087  0.38436118    -0.07000
C2174       C  0.59288562  0.84649085  0.38809394    -0.18100
C2175       C  0.56954159  0.84506686  0.40232382     0.10200
C2176       C  0.56477720  0.87563938  0.41253653    -0.06900
C2177       C  0.59098932  0.90203136  0.41197630    -0.18100
C2178       C  0.61314589  0.90460260  0.39727929     0.10300
S2179       S  0.54537319  0.80495083  0.40611591    -0.33100
S2180       S  0.63846474  0.94462865  0.39405781    -0.33100
H2181       H  0.63063089  0.96058113  0.41050497     0.28300
H2182       H  0.54051961  0.81111723  0.42447802     0.28300
H2183       H  0.59505807  0.82401845  0.37931960     0.18900
H2184       H  0.58981581  0.92400092  0.42117878     0.18900
C2185       C  0.91885877  0.21876539  0.33188540    -0.07000
C2186       C  0.89440814  0.19093507  0.33184168    -0.18100
C2187       C  0.89443205  0.16651045  0.34565004     0.10200
C2188       C  0.92145884  0.16875556  0.35855663    -0.06900
C2189       C  0.95113923  0.18996922  0.35523348    -0.18100
C2190       C  0.95045310  0.21473466  0.34145032     0.10300
S2191       S  0.85659826  0.13778485  0.34807347    -0.33100
S2192       S  0.98854550  0.24197845  0.33698819    -0.33100
H2193       H  0.01136529  0.22484410  0.34895918     0.28300
H2194       H  0.84241321  0.14316522  0.33093611     0.28300
H2195       H  0.87180081  0.19207263  0.32304494     0.18900
H2196       H  0.97346331  0.18910040  0.36423628     0.18900
C2197       C  0.05537894  0.16923456  0.40861401    -0.07000
C2198       C  0.05331952  0.20023061  0.39841919    -0.18100
C2199       C  0.08058339  0.20932338  0.38697171     0.10200
C2200       C  0.10932181  0.18618107  0.38533448    -0.06900
C2201       C  0.11473599  0.16044632  0.39850795    -0.18100
C2202       C  0.08813506  0.15229122  0.41050729     0.10300
S2203       S  0.07596967  0.24882593  0.37385279    -0.33100
S2204       S  0.09663242  0.11838305  0.42683244    -0.33100
H2205       H  0.07036350  0.12929351  0.43876837     0.28300
H2206       H  0.11223154  0.25333592  0.37086479     0.28300
H2207       H  0.02924510  0.21540130  0.39790559     0.18900
H2208       H  0.13805912  0.14413220  0.39836605     0.18900
C2209       C  0.85481135  0.96441481  0.38722610    -0.07000
C2210       C  0.86649479  0.96472269  0.36911620    -0.18100
C2211       C  0.84818128  0.94735478  0.35492133     0.10200
C2212       C  0.81625079  0.92929793  0.35825422    -0.06900
C2213       C  0.80687936  0.92601369  0.37662464    -0.18100
C2214       C  0.82518346  0.94305501  0.39076899     0.10300
S2215       S  0.86552980  0.95132253  0.33273751    -0.33100
S2216       S  0.80672933  0.94000886  0.41277847    -0.33100
H2217       H  0.83936599  0.93433505  0.42112272     0.28300
H2218       H  0.85912038  0.91575554  0.32841793     0.28300
H2219       H  0.88936265  0.98045778  0.36574163     0.18900
H2220       H  0.78347134  0.91130247  0.38009641     0.18900
C2221       C  0.48466651  0.74788045  0.28356328    -0.07000
C2222       C  0.48389428  0.78501105  0.28439989    -0.18100
C2223       C  0.51525316  0.80571646  0.28492829     0.10200
C2224       C  0.54901263  0.78962923  0.28430655    -0.06900
C2225       C  0.54969136  0.75264389  0.28254852    -0.18100
C2226       C  0.51842035  0.73197133  0.28228040     0.10300
S2227       S  0.51185111  0.85306310  0.28683618    -0.33100
S2228       S  0.52337955  0.68475546  0.28126569    -0.33100
H2229       H  0.49068915  0.67801025  0.27309626     0.28300
H2230       H  0.47652141  0.85364639  0.29231180     0.28300
H2231       H  0.45864072  0.79779637  0.28571726     0.18900
H2232       H  0.57487753  0.73941033  0.28246646     0.18900
C2233       C  0.42271011  0.85369071  0.36380892    -0.07000
C2234       C  0.44747203  0.82631425  0.36288581    -0.18100
C2235       C  0.44391059  0.79940017  0.35045908     0.10200
C2236       C  0.41442976  0.79935705  0.33905869    -0.06900
C2237       C  0.39437973  0.83020912  0.33743045    -0.18100
C2238       C  0.39825515  0.85769958  0.34967602     0.10300
S2239       S  0.47483689  0.76374458  0.35163988    -0.33100
S2240       S  0.36904359  0.89500180  0.34780704    -0.33100
H2241       H  0.36210786  0.89089909  0.32946040     0.28300
H2242       H  0.48016755  0.76301326  0.33303963     0.28300
H2243       H  0.46830097  0.82430573  0.37273842     0.18900
H2244       H  0.37299518  0.83114543  0.32785532     0.18900
C2245       C  0.47293179  0.65895348  0.41167133    -0.07000
C2246       C  0.44613510  0.63329876  0.41118056    -0.18100
C2247       C  0.42350404  0.63136643  0.39656556     0.10200
C2248       C  0.42645901  0.65748975  0.38319037    -0.06900
C2249       C  0.44648928  0.68801303  0.38662314    -0.18100
C2250       C  0.46900713  0.68942272  0.40124902     0.10300
S2251       S  0.39540117  0.59297924  0.39427566    -0.33100
S2252       S  0.49309495  0.72947534  0.40537945    -0.33100
H2253       H  0.49700255  0.72334540  0.42381381     0.28300
H2254       H  0.39974840  0.58005917  0.41174268     0.28300
H2255       H  0.44694974  0.61139920  0.42045937     0.18900
H2256       H  0.44577058  0.71013859  0.37748512     0.18900
C2257       C  0.03649040  0.29739811  0.46041891    -0.07000
C2258       C  0.05345224  0.26446174  0.46208597    -0.18100
C2259       C  0.03458992  0.23211139  0.46274956     0.10200
C2260       C  0.99741606  0.23162468  0.46117881    -0.06900
C2261       C  0.98047537  0.26464048  0.46001783    -0.18100
C2262       C  0.99922795  0.29699199  0.45981044     0.10300
S2263       S  0.05973460  0.19206765  0.46340332    -0.33100
S2264       S  0.97414361  0.33657736  0.45632755    -0.33100
H2265       H  0.99440526  0.35750638  0.46792405     0.28300
H2266       H  0.03822543  0.17590590  0.47625744     0.28300
H2267       H  0.08192548  0.26376229  0.46201801     0.18900
H2268       H  0.95219477  0.26519811  0.45825130     0.18900
C2269       C  0.12017772  0.31366686  0.33045954    -0.07000
C2270       C  0.08919814  0.31431340  0.34046533    -0.18100
C2271       C  0.08615402  0.33860515  0.35422129     0.10200
C2272       C  0.11500055  0.36103115  0.35781247    -0.06900
C2273       C  0.13998243  0.36702737  0.34444291    -0.18100
C2274       C  0.14154444  0.34404215  0.33001402     0.10300
S2275       S  0.04651511  0.33827419  0.36729768    -0.33100
S2276       S  0.17327265  0.35088013  0.31249416    -0.33100
H2277       H  0.18354260  0.38497649  0.31784802     0.28300
H2278       H  0.04960783  0.37358230  0.37288602     0.28300
H2279       H  0.06998514  0.29323467  0.33937394     0.18900
H2280       H  0.16012669  0.38703434  0.34610394     0.18900
C2281       C  0.92670333  0.34555955  0.38548363    -0.07000
C2282       C  0.92204060  0.37312572  0.39772212    -0.18100
C2283       C  0.94911141  0.38239666  0.40930590     0.10200
C2284       C  0.98114860  0.36390001  0.40822176    -0.06900
C2285       C  0.98161825  0.33100065  0.39962130    -0.18100
C2286       C  0.95431273  0.32151343  0.38820449     0.10300
S2287       S  0.94211831  0.41942691  0.42392986    -0.33100
S2288       S  0.95755054  0.28026607  0.37646425    -0.33100
H2289       H  0.92164580  0.27812010  0.37201247     0.28300
H2290       H  0.96688451  0.40849049  0.43674662     0.28300
H2291       H  0.89934984  0.39023895  0.39682634     0.18900
H2292       H  0.00478135  0.31448372  0.40010695     0.18900
C2293       C  0.18381881  0.55803296  0.38446965    -0.07000
C2294       C  0.17608962  0.55267149  0.36593959    -0.18100
C2295       C  0.19474796  0.56971296  0.35174086     0.10200
C2296       C  0.22223655  0.59372740  0.35555736    -0.06900
C2297       C  0.22759998  0.60153980  0.37399991    -0.18100
C2298       C  0.20916474  0.58449524  0.38813582     0.10300
S2299       S  0.18524903  0.55830849  0.32885886    -0.33100
S2300       S  0.22165604  0.59551929  0.41060092    -0.33100
H2301       H  0.18676487  0.59778606  0.41662151     0.28300
H2302       H  0.15859927  0.53350094  0.33245468     0.28300
H2303       H  0.15641288  0.53315969  0.36244404     0.18900
H2304       H  0.24794705  0.62027446  0.37762123     0.18900
C2305       C  0.30819788  0.42690600  0.85924016    -0.07000
C2306       C  0.30086113  0.42436820  0.87787413    -0.18100
C2307       C  0.32033693  0.44253233  0.89130466     0.10200
C2308       C  0.34969669  0.46344419  0.88664871    -0.06900
C2309       C  0.35910563  0.46335457  0.86820851    -0.18100
C2310       C  0.33918612  0.44561646  0.85475287     0.10300
S2311       S  0.30515494  0.44137211  0.91410498    -0.33100
S2312       S  0.35330197  0.45008188  0.83200347    -0.33100
H2313       H  0.34949457  0.41390437  0.82828507     0.28300
H2314       H  0.27393391  0.42232519  0.91096974     0.28300
H2315       H  0.27826584  0.40918206  0.88203226     0.18900
H2316       H  0.38161162  0.47879645  0.86398327     0.18900
C2317       C  0.54295608  0.78699339  0.96274791    -0.07000
C2318       C  0.50605737  0.78893302  0.96302696    -0.18100
C2319       C  0.48470434  0.75826452  0.96259082     0.10200
C2320       C  0.50001043  0.72411175  0.96204933    -0.06900
C2321       C  0.53688233  0.72210917  0.96292921    -0.18100
C2322       C  0.55829941  0.75285483  0.96313464     0.10300
S2323       S  0.43778354  0.76457056  0.96167571    -0.33100
S2324       S  0.60555360  0.74826839  0.96307696    -0.33100
H2325       H  0.60634997  0.71121071  0.96392941     0.28300
H2326       H  0.42882082  0.73168372  0.96911159     0.28300
H2327       H  0.49364934  0.81457784  0.96232657     0.18900
H2328       H  0.54901703  0.69637502  0.96214025     0.18900
C2329       C  0.97928588  0.23854133  0.78574171    -0.07000
C2330       C  0.01260582  0.22227365  0.78493084    -0.18100
C2331       C  0.04443512  0.24200893  0.78479933     0.10200
C2332       C  0.04372630  0.27924860  0.78598770    -0.06900
C2333       C  0.01038842  0.29559603  0.78606754    -0.18100
C2334       C  0.97851104  0.27587207  0.78572350     0.10300
S2335       S  0.08600732  0.21922224  0.78490563    -0.33100
S2336       S  0.93692724  0.29851311  0.78696151    -0.33100
H2337       H  0.95075713  0.33276611  0.78889806     0.28300
H2338       H  0.07225525  0.18504016  0.78253284     0.28300
H2339       H  0.01370689  0.19375079  0.78527574     0.18900
H2340       H  0.00937905  0.32403055  0.78725050     0.18900
C2341       C  0.68354433  0.05040138  0.88721879    -0.07000
C2342       C  0.67506866  0.04502372  0.86882814    -0.18100
C2343       C  0.69153448  0.06368816  0.85457008     0.10200
C2344       C  0.71816490  0.08890835  0.85809740    -0.06900
C2345       C  0.72409206  0.09668332  0.87650813    -0.18100
C2346       C  0.70743686  0.07825006  0.89076444     0.10300
S2347       S  0.67975847  0.05164271  0.83213036    -0.33100
S2348       S  0.72082340  0.08899468  0.91313621    -0.33100
H2349       H  0.68625904  0.08951783  0.91971450     0.28300
H2350       H  0.67897825  0.08668732  0.82598192     0.28300
H2351       H  0.65642606  0.02445736  0.86534303     0.18900
H2352       H  0.74387595  0.11617064  0.87996897     0.18900
C2353       C  0.91489714  0.28689171  0.84140856    -0.07000
C2354       C  0.94599637  0.28531965  0.85145070    -0.18100
C2355       C  0.95526622  0.31308117  0.86267038     0.10200
C2356       C  0.93191593  0.34161570  0.86454564    -0.06900
C2357       C  0.90533409  0.34638022  0.85178546    -0.18100
C2358       C  0.89707529  0.31938474  0.83983507     0.10300
S2359       S  0.99581809  0.30984708  0.87497998    -0.33100
S2360       S  0.86261771  0.32610409  0.82353141    -0.33100
H2361       H  0.85926865  0.36270492  0.82608669     0.28300
H2362       H  0.99986045  0.34641531  0.87756660     0.28300
H2363       H  0.96152312  0.26144272  0.85175516     0.18900
H2364       H  0.88872417  0.36948092  0.85231760     0.18900
C2365       C  0.06596993  0.35454124  0.91801372    -0.07000
C2366       C  0.09393170  0.37877607  0.91793623    -0.18100
C2367       C  0.11514297  0.38158745  0.90288700     0.10200
C2368       C  0.10944660  0.35742429  0.88873848    -0.06900
C2369       C  0.08926619  0.32691179  0.89191276    -0.18100
C2370       C  0.06851543  0.32472682  0.90716772     0.10300
S2371       S  0.14489997  0.41882438  0.90130643    -0.33100
S2372       S  0.04484157  0.28518422  0.91262309    -0.33100
H2373       H  0.05802354  0.26493016  0.89842055     0.28300
H2374       H  0.14180766  0.43042305  0.91905968     0.28300
H2375       H  0.09456803  0.39967078  0.92778407     0.18900
H2376       H  0.08837037  0.30589095  0.88212904     0.18900
C2377       C  0.61710871  0.66804369  0.88959977    -0.07000
C2378       C  0.62079409  0.64138320  0.90241448    -0.18100
C2379       C  0.59399503  0.63553800  0.91473151     0.10200
C2380       C  0.56311425  0.65589442  0.91332016    -0.06900
C2381       C  0.56445177  0.68805397  0.90406168    -0.18100
C2382       C  0.59182514  0.69446263  0.89214810     0.10300
S2383       S  0.59811719  0.60059352  0.93100475    -0.33100
S2384       S  0.59331971  0.73470962  0.87934854    -0.33100
H2385       H  0.55860040  0.74493457  0.88268662     0.28300
H2386       H  0.63174712  0.58921686  0.92585689     0.28300
H2387       H  0.64218112  0.62273029  0.90145171     0.18900
H2388       H  0.54232489  0.70585859  0.90439957     0.18900
C2389       C  0.62158121  0.84524273  0.86152176    -0.07000
C2390       C  0.59114934  0.82431348  0.85948253    -0.18100
C2391       C  0.58870578  0.80038906  0.84547162     0.10200
C2392       C  0.61827133  0.79615232  0.83456744    -0.06900
C2393       C  0.64225082  0.82427549  0.83319903    -0.18100
C2394       C  0.64539257  0.84821211  0.84719169     0.10300
S2395       S  0.54918420  0.77452239  0.84290652    -0.33100
S2396       S  0.68304427  0.87742140  0.84769481    -0.33100
H2397       H  0.69293900  0.87292287  0.82976755     0.28300
H2398       H  0.55507469  0.76659156  0.82481761     0.28300
H2399       H  0.57045997  0.82490109  0.86939699     0.18900
H2400       H  0.66292166  0.82313082  0.82330964     0.18900
C2401       C  0.81063285  0.58166062  0.86128886    -0.07000
C2402       C  0.80456886  0.58693741  0.87994953    -0.18100
C2403       C  0.82344154  0.56931672  0.89374184     0.10200
C2404       C  0.84995560  0.54476908  0.88949972    -0.06900
C2405       C  0.85782171  0.54139766  0.87093604    -0.18100
C2406       C  0.83912068  0.55932824  0.85713336     0.10300
S2407       S  0.81003071  0.57684095  0.91641255    -0.33100
S2408       S  0.85114378  0.55033230  0.83443971    -0.33100
H2409       H  0.85087865  0.58606523  0.82940047     0.28300
H2410       H  0.84457368  0.58176562  0.92267997     0.28300
H2411       H  0.78358960  0.60424317  0.88405865     0.18900
H2412       H  0.87824455  0.52326226  0.86693311     0.18900
C2413       C  0.99404758  0.28353269  0.96958300    -0.07000
C2414       C  0.03039174  0.28496221  0.97326473    -0.18100
C2415       C  0.05175034  0.25433185  0.97271187     0.10200
C2416       C  0.03696976  0.22096590  0.96834957    -0.06900
C2417       C  0.00031533  0.21918470  0.96598712    -0.18100
C2418       C  0.97895303  0.24970206  0.96658898     0.10300
S2419       S  0.09826769  0.25995135  0.97640657    -0.33100
S2420       S  0.93229282  0.24558637  0.96240933    -0.33100
H2421       H  0.93171565  0.20890624  0.95959806     0.28300
H2422       H  0.10525327  0.22467941  0.98096835     0.28300
H2423       H  0.04279243  0.31044485  0.97523263     0.18900
H2424       H  0.98866730  0.19402283  0.96244929     0.18900
C2425       C  0.97216909  0.14737384  0.91193000    -0.07000
C2426       C  0.94514323  0.12187399  0.91219937    -0.18100
C2427       C  0.92089865  0.12004498  0.89827165     0.10200
C2428       C  0.92232589  0.14623049  0.88495164    -0.06900
C2429       C  0.94272805  0.17666701  0.88775293    -0.18100
C2430       C  0.96774491  0.17759780  0.90131384     0.10300
S2431       S  0.89289385  0.08154888  0.89642440    -0.33100
S2432       S  0.99547013  0.21576652  0.90356309    -0.33100
H2433       H  0.97508685  0.23842746  0.89289187     0.28300
H2434       H  0.90060522  0.06699364  0.91325041     0.28300
H2435       H  0.94652805  0.10015507  0.92155992     0.18900
H2436       H  0.94137956  0.19830452  0.87831981     0.18900
C2437       C  0.11146137  0.22066038  0.83918521    -0.07000
C2438       C  0.13222450  0.19033214  0.83736066    -0.18100
C2439       C  0.12729371  0.16136716  0.84859651     0.10200
C2440       C  0.10176246  0.16383973  0.86219975    -0.06900
C2441       C  0.07601109  0.19017909  0.86097191    -0.18100
C2442       C  0.07996670  0.21822954  0.84904570     0.10300
S2443       S  0.15589974  0.12362369  0.84633302    -0.33100
S2444       S  0.04591549  0.25116922  0.84763882    -0.33100
H2445       H  0.02031305  0.23201088  0.85712772     0.28300
H2446       H  0.17764952  0.13743653  0.83287658     0.28300
H2447       H  0.15437138  0.19066823  0.82832559     0.18900
H2448       H  0.05449311  0.19043537  0.87040772     0.18900
C2449       C  0.42996036  0.84046633  0.88856186    -0.07000
C2450       C  0.45446079  0.81310478  0.89061634    -0.18100
C2451       C  0.48248067  0.81677113  0.90260425     0.10200
C2452       C  0.48681848  0.84933291  0.91137362    -0.06900
C2453       C  0.45774500  0.87181051  0.91276172    -0.18100
C2454       C  0.42908024  0.86784022  0.90136237     0.10300
S2455       S  0.51260620  0.78081039  0.90593459    -0.33100
S2456       S  0.39539045  0.90137679  0.90166960    -0.33100
H2457       H  0.40366463  0.91512195  0.91862152     0.28300
H2458       H  0.49103967  0.75473262  0.89813864     0.28300
H2459       H  0.45333039  0.79038734  0.88185930     0.18900
H2460       H  0.45948768  0.89521914  0.92100418     0.18900
C2461       C  0.48653426  0.77554351  0.78392668    -0.07000
C2462       C  0.48343714  0.73848975  0.78448224    -0.18100
C2463       C  0.51344001  0.71621752  0.78523511     0.10200
C2464       C  0.54794485  0.73068263  0.78512755    -0.06900
C2465       C  0.55098594  0.76758625  0.78348477    -0.18100
C2466       C  0.52108283  0.78981699  0.78296421     0.10300
S2467       S  0.50753328  0.66912220  0.78733344    -0.33100
S2468       S  0.52870155  0.83675674  0.78227530    -0.33100
H2469       H  0.49632213  0.84533391  0.77427948     0.28300
H2470       H  0.47065452  0.66896076  0.78589640     0.28300
H2471       H  0.45743480  0.72706670  0.78577100     0.18900
H2472       H  0.57692155  0.77949189  0.78380067     0.18900
C2473       C  0.42679272  0.71130896  0.83202016    -0.07000
C2474       C  0.45723730  0.71139455  0.84256500    -0.18100
C2475       C  0.46110191  0.68567699  0.85568828     0.10200
C2476       C  0.43351684  0.66109197  0.85806601    -0.06900
C2477       C  0.40967433  0.65524558  0.84407982    -0.18100
C2478       C  0.40740538  0.67975098  0.83035597     0.10300
S2479       S  0.49924605  0.68639698  0.87008114    -0.33100
S2480       S  0.37643949  0.67213243  0.81252329    -0.33100
H2481       H  0.39039390  0.69850711  0.80131875     0.28300
H2482       H  0.51935405  0.70924128  0.85939978     0.28300
H2483       H  0.47469575  0.73402891  0.84258251     0.18900
H2484       H  0.39066701  0.63391486  0.84467013     0.18900
C2485       C  0.22822801  0.92348679  0.86265475    -0.07000
C2486       C  0.23291125  0.91812876  0.88139346    -0.18100
C2487       C  0.21401522  0.93687415  0.89470100     0.10200
C2488       C  0.18903815  0.96265465  0.88983513    -0.06900
C2489       C  0.18215071  0.96578369  0.87114277    -0.18100
C2490       C  0.20128955  0.94728242  0.85780641     0.10300
S2491       S  0.22478048  0.92833207  0.91765623    -0.33100
S2492       S  0.19183358  0.95746611  0.83485463    -0.33100
H2493       H  0.22724143  0.96324566  0.83031173     0.28300
H2494       H  0.18941758  0.92390316  0.92263766     0.28300
H2495       H  0.25263380  0.89964748  0.88593497     0.18900
H2496       H  0.16274086  0.98464882  0.86664540     0.18900
C2497       C  0.99031123  0.50175948  0.99197792    -0.07000
C2498       C  0.01694836  0.51688927  0.98143221    -0.18100
C2499       C  0.05104826  0.52323425  0.98824719     0.10200
C2500       C  0.05925293  0.51424057  0.00611654    -0.06900
C2501       C  0.03236011  0.49987483  0.01677445    -0.18100
C2502       C  0.99811009  0.49427864  0.01010015     0.10300
S2503       S  0.08440884  0.54119659  0.97370618    -0.33100
S2504       S  0.96423478  0.47892706  0.02514154    -0.33100
H2505       H  0.98376977  0.48233783  0.04102451     0.28300
H2506       H  0.06375915  0.54251452  0.95811944     0.28300
H2507       H  0.01144944  0.52239167  0.96754280     0.18900
H2508       H  0.03786953  0.49401994  0.03063115     0.18900
C2509       C  0.24269990  0.53760552  0.01091123    -0.07000
C2510       C  0.27861274  0.53295826  0.01470944    -0.18100
C2511       C  0.30400601  0.53164696  0.00104209     0.10200
C2512       C  0.29376596  0.53588250  0.98297093    -0.06900
C2513       C  0.25768455  0.53913696  0.97916496    -0.18100
C2514       C  0.23223866  0.53969362  0.99278491     0.10300
S2515       S  0.34949224  0.52923553  0.00766674    -0.33100
S2516       S  0.18723831  0.54716877  0.98621771    -0.33100
H2517       H  0.17205934  0.52847728  0.00043386     0.28300
H2518       H  0.35913185  0.50570262  0.99408279     0.28300
H2519       H  0.28720445  0.53218689  0.02850533     0.18900
H2520       H  0.24938190  0.54327112  0.96547549     0.18900
C2521       C  0.28051209  0.29846991  0.24136482    -0.07000
C2522       C  0.26574201  0.27053994  0.23149062    -0.18100
C2523       C  0.26043338  0.23698787  0.23901852     0.10200
C2524       C  0.26825067  0.23089679  0.25728520    -0.06900
C2525       C  0.28294496  0.25886131  0.26719619    -0.18100
C2526       C  0.28931201  0.29226008  0.25946318     0.10300
S2527       S  0.24535268  0.20249643  0.22425357    -0.33100
S2528       S  0.30723943  0.32735012  0.27305247    -0.33100
H2529       H  0.31422773  0.30675499  0.28826452     0.28300
H2530       H  0.26377602  0.17539837  0.23302047     0.28300
H2531       H  0.26033456  0.27414090  0.21740088     0.18900
H2532       H  0.28822929  0.25496306  0.28124797     0.18900
C2533       C  0.29582172  0.48443819  0.23150930    -0.07000
C2534       C  0.29020404  0.47394389  0.24931106    -0.18100
C2535       C  0.28810352  0.49891684  0.26327402     0.10200
C2536       C  0.29146823  0.53541582  0.25952620    -0.06900
C2537       C  0.29405320  0.54586789  0.24159782    -0.18100
C2538       C  0.29618574  0.52103019  0.22768665     0.10300
S2539       S  0.28350882  0.48256030  0.28575596    -0.33100
S2540       S  0.30157261  0.53777001  0.20534417    -0.33100
H2541       H  0.28707958  0.50820131  0.19665353     0.28300
H2542       H  0.27100787  0.51415066  0.29319803     0.28300
H2543       H  0.28988404  0.44608350  0.25255278     0.18900
H2544       H  0.29705381  0.57364136  0.23847676     0.18900
C2545       C  0.23201453  0.42331177  0.13545085    -0.07000
C2546       C  0.23998192  0.42192999  0.11681050    -0.18100
C2547       C  0.22110465  0.44069597  0.10351263     0.10200
C2548       C  0.19264036  0.46241909  0.10824066    -0.06900
C2549       C  0.18301699  0.46206935  0.12662639    -0.18100
C2550       C  0.20165481  0.44284104  0.13995193     0.10300
S2551       S  0.23677299  0.43827553  0.08093032    -0.33100
S2552       S  0.18545216  0.44483308  0.16242846    -0.33100
H2553       H  0.18964250  0.40845425  0.16545527     0.28300
H2554       H  0.20324149  0.43154055  0.07372421     0.28300
H2555       H  0.26211739  0.40665848  0.11225740     0.18900
H2556       H  0.16098691  0.47798407  0.13086839     0.18900
C2557       C  0.55807259  0.00113386  0.99144778    -0.07000
C2558       C  0.54676165  0.98291880  0.00689261    -0.18100
C2559       C  0.51369180  0.98905472  0.01489238     0.10200
C2560       C  0.49045912  0.01423871  0.00738344    -0.06900
C2561       C  0.50138457  0.03146612  0.99161392    -0.18100
C2562       C  0.53448639  0.02587596  0.98388650     0.10300
S2563       S  0.50188143  0.96386470  0.03446256    -0.33100
S2564       S  0.54420743  0.05102982  0.96411899    -0.33100
H2565       H  0.57486149  0.06587012  0.97159442     0.28300
H2566       H  0.53513946  0.94905871  0.03768515     0.28300
H2567       H  0.56378351  0.96308188  0.01261697     0.18900
H2568       H  0.48432168  0.05070080  0.98536951     0.18900
C2569       C  0.29495721  0.03835936  0.01375427    -0.07000
C2570       C  0.30757807  0.03745057  0.99612996    -0.18100
C2571       C  0.28441380  0.03780553  0.98137891     0.10200
C2572       C  0.24773703  0.03740515  0.98418578    -0.06900
C2573       C  0.23518912  0.03575378  0.00180402    -0.18100
C2574       C  0.25826054  0.03669212  0.01652469     0.10300
S2575       S  0.30168942  0.04076150  0.95901304    -0.33100
S2576       S  0.23931307  0.03782558  0.03853134    -0.33100
H2577       H  0.26833672  0.02283379  0.04734779     0.28300
H2578       H  0.33730032  0.04409191  0.96387545     0.28300
H2579       H  0.33565297  0.03925027  0.99393670     0.18900
H2580       H  0.20709163  0.03615744  0.00415187     0.18900
C2581       C  0.44336932  0.16788564  0.13556774    -0.07000
C2582       C  0.41810512  0.16259064  0.14888541    -0.18100
C2583       C  0.41235266  0.18879212  0.16155156     0.10200
C2584       C  0.43106208  0.22084081  0.15993241    -0.06900
C2585       C  0.46240042  0.22125879  0.15015065    -0.18100
C2586       C  0.46913319  0.19419867  0.13810020     0.10300
S2587       S  0.37939997  0.18233518  0.17855712    -0.33100
S2588       S  0.50964632  0.19525902  0.12587163    -0.33100
H2589       H  0.50878860  0.15940057  0.12101347     0.28300
H2590       H  0.37270924  0.14653533  0.17488208     0.28300
H2591       H  0.40021632  0.14034728  0.14815886     0.18900
H2592       H  0.47956639  0.24413396  0.15036942     0.18900
C2593       C  0.26885900  0.79614181  0.23861966    -0.07000
C2594       C  0.28273337  0.76878661  0.22812880    -0.18100
C2595       C  0.28643143  0.73423057  0.23487018     0.10200
C2596       C  0.27580938  0.72612906  0.25256027    -0.06900
C2597       C  0.26249015  0.75369301  0.26306511    -0.18100
C2598       C  0.26018544  0.78837721  0.25659188     0.10300
S2599       S  0.30348984  0.70126295  0.21992593    -0.33100
S2600       S  0.24726947  0.82200630  0.27226243    -0.33100
H2601       H  0.26625186  0.84938971  0.26396254     0.28300
H2602       H  0.28415799  0.67305678  0.22723204     0.28300
H2603       H  0.28906771  0.77383344  0.21427351     0.18900
H2604       H  0.25548188  0.74873211  0.27683149     0.18900
C2605       C  0.24098748  0.98763189  0.23828564    -0.07000
C2606       C  0.24665165  0.02366363  0.23494360    -0.18100
C2607       C  0.24703667  0.04864463  0.24892922     0.10200
C2608       C  0.24098564  0.03757920  0.26671490    -0.06900
C2609       C  0.23682360  0.00137536  0.27010029    -0.18100
C2610       C  0.23738564  0.97642119  0.25622611     0.10300
S2611       S  0.25138652  0.09500035  0.24370919    -0.33100
S2612       S  0.23014684  0.93088492  0.26214093    -0.33100
H2613       H  0.25170596  0.91701182  0.24869495     0.28300
H2614       H  0.25316916  0.09130313  0.22505953     0.28300
H2615       H  0.24874505  0.03242516  0.22123588     0.18900
H2616       H  0.23165979  0.99258297  0.28360893     0.18900
C2617       C  0.12080243  0.66820914  0.13596307    -0.07000
C2618       C  0.09173568  0.69044754  0.13855820    -0.18100
C2619       C  0.09272289  0.71627235  0.15174387     0.10200
C2620       C  0.12464286  0.72171458  0.16083736    -0.06900
C2621       C  0.14903350  0.69403127  0.16152867    -0.18100
C2622       C  0.14742688  0.66685455  0.14908678     0.10300
S2623       S  0.05373107  0.74184188  0.15586333    -0.33100
S2624       S  0.18177841  0.63403047  0.14899647    -0.33100
H2625       H  0.19782213  0.64399144  0.16517881     0.28300
H2626       H  0.06160568  0.74777355  0.17398993     0.28300
H2627       H  0.06908318  0.68884515  0.12977247     0.18900
H2628       H  0.17185415  0.69619990  0.17013684     0.18900
C2629       C  0.31157268  0.93633323  0.13827950    -0.07000
C2630       C  0.30720832  0.92824749  0.11975610    -0.18100
C2631       C  0.32459497  0.94685427  0.10576047     0.10200
C2632       C  0.34888816  0.97407959  0.10973752    -0.06900
C2633       C  0.35548876  0.97993817  0.12829447    -0.18100
C2634       C  0.33744775  0.96202061  0.14225039     0.10300
S2635       S  0.31218512  0.93655118  0.08316504    -0.33100
S2636       S  0.34643808  0.97556691  0.16479305    -0.33100
H2637       H  0.35008675  0.94082126  0.17107323     0.28300
H2638       H  0.30917334  0.97193874  0.07774612     0.28300
H2639       H  0.28807483  0.90840801  0.11592718     0.18900
H2640       H  0.37415928  0.00014534  0.13217043     0.18900
C2641       C  0.77153075  0.22991609  0.24039080    -0.07000
C2642       C  0.78787103  0.25700703  0.23056676    -0.18100
C2643       C  0.79122531  0.29154426  0.23729914     0.10200
C2644       C  0.77942710  0.29976622  0.25479988    -0.06900
C2645       C  0.76269457  0.27282250  0.26452995    -0.18100
C2646       C  0.75877743  0.23842692  0.25766218     0.10300
S2647       S  0.80945362  0.32422361  0.22241308    -0.33100
S2648       S  0.73811409  0.20633414  0.27199373    -0.33100
H2649       H  0.75797839  0.17763248  0.26581342     0.28300
H2650       H  0.78901092  0.35219021  0.22898162     0.28300
H2651       H  0.79644494  0.25182395  0.21704744     0.18900
H2652       H  0.75399667  0.27803589  0.27801951     0.18900
C2653       C  0.75768651  0.04150438  0.23247190    -0.07000
C2654       C  0.75504676  0.05265647  0.25027464    -0.18100
C2655       C  0.75260257  0.02827898  0.26437054     0.10200
C2656       C  0.75368860  0.99161143  0.26084760    -0.06900
C2657       C  0.75928910  0.98053583  0.24319394    -0.18100
C2658       C  0.76079947  0.00491924  0.22901732     0.10300
S2659       S  0.74475318  0.04552851  0.28640308    -0.33100
S2660       S  0.76322307  0.98749914  0.20665636    -0.33100
H2661       H  0.77550879  0.01859046  0.19851679     0.28300
H2662       H  0.75907741  0.01663880  0.29564089     0.28300
H2663       H  0.75171138  0.08048524  0.25310492     0.18900
H2664       H  0.75939173  0.95256481  0.24020768     0.18900
C2665       C  0.56182458  0.24382124  0.21049182    -0.07000
C2666       C  0.52872012  0.22701069  0.21204146    -0.18100
C2667       C  0.49656351  0.24599316  0.21182324     0.10200
C2668       C  0.49648103  0.28326100  0.20987449    -0.06900
C2669       C  0.52966239  0.30011441  0.20901109    -0.18100
C2670       C  0.56175294  0.28119691  0.20959637     0.10300
S2671       S  0.45645504  0.22059766  0.21248753    -0.33100
S2672       S  0.60183410  0.30609698  0.20727361    -0.33100
H2673       H  0.61986323  0.28718235  0.22054959     0.28300
H2674       H  0.43845364  0.24062188  0.19964915     0.28300
H2675       H  0.52774236  0.19844896  0.21235195     0.18900
H2676       H  0.53063675  0.32845134  0.20715005     0.18900
C2677       C  0.56771957  0.16073161  0.08336250    -0.07000
C2678       C  0.59518246  0.13600600  0.08312593    -0.18100
C2679       C  0.62121235  0.13690023  0.09616734     0.10200
C2680       C  0.62044791  0.16446222  0.10875296    -0.06900
C2681       C  0.59885156  0.19392162  0.10568250    -0.18100
C2682       C  0.57283759  0.19272795  0.09249607     0.10300
S2683       S  0.65059912  0.09968856  0.09817622    -0.33100
S2684       S  0.54589810  0.23094819  0.08806542    -0.33100
H2685       H  0.56352876  0.25393073  0.09983041     0.28300
H2686       H  0.64352575  0.08491237  0.08132007     0.28300
H2687       H  0.59314942  0.11293494  0.07466397     0.18900
H2688       H  0.60066495  0.21661217  0.11442809     0.18900
C2689       C  0.05279753  0.01287811  0.99160243    -0.07000
C2690       C  0.02627572  0.99685643  0.98122248    -0.18100
C2691       C  0.99180038  0.99233994  0.98766578     0.10200
C2692       C  0.98293736  0.00358257  0.00511702    -0.06900
C2693       C  0.00924739  0.02019780  0.01535967    -0.18100
C2694       C  0.04380293  0.02419252  0.00907401     0.10300
S2695       S  0.95997238  0.97297541  0.97269691    -0.33100
S2696       S  0.07545590  0.04250660  0.02450853    -0.33100
H2697       H  0.10368630  0.02198976  0.01837694     0.28300
H2698       H  0.93082293  0.99025167  0.98011431     0.28300
H2699       H  0.03198206  0.98897808  0.96764834     0.18900
H2700       H  0.00357459  0.02810221  0.02893845     0.18900
C2701       C  0.79727861  0.97891848  0.01498461    -0.07000
C2702       C  0.76163506  0.97323094  0.01903562    -0.18100
C2703       C  0.73516780  0.97554596  0.00592768     0.10200
C2704       C  0.74393183  0.98287593  0.98797190    -0.06900
C2705       C  0.77932278  0.99062249  0.98403068    -0.18100
C2706       C  0.80591265  0.98882705  0.99725957     0.10300
S2707       S  0.69072508  0.96558053  0.01259612    -0.33100
S2708       S  0.85065304  0.99611848  0.99025713    -0.33100
H2709       H  0.86529435  0.96875550  0.00049863     0.28300
H2710       H  0.67450660  0.98643576  0.99943381     0.28300
H2711       H  0.75442424  0.96551637  0.03246678     0.18900
H2712       H  0.78675915  0.99533284  0.97028528     0.18900
C2713       C  0.06913267  0.86009881  0.08443271    -0.07000
C2714       C  0.06945959  0.82783741  0.09361848    -0.18100
C2715       C  0.09432806  0.82229766  0.10703546     0.10200
C2716       C  0.11856437  0.84937058  0.11085010    -0.06900
C2717       C  0.12397718  0.87623967  0.09831376    -0.18100
C2718       C  0.09979200  0.88123899  0.08464767     0.10300
S2719       S  0.09362012  0.78221137  0.11989348    -0.33100
S2720       S  0.10727749  0.91727825  0.06940500    -0.33100
H2721       H  0.08513146  0.90354439  0.05600516     0.28300
H2722       H  0.06830804  0.76443855  0.10947554     0.28300
H2723       H  0.04769538  0.80953398  0.09224721     0.18900
H2724       H  0.14464232  0.89563435  0.10020702     0.18900
C2725       C  0.85934499  0.05516555  0.10943588    -0.07000
C2726       C  0.87033903  0.05715008  0.12764839    -0.18100
C2727       C  0.85238464  0.07739870  0.14091622     0.10200
C2728       C  0.82196161  0.09699127  0.13638860    -0.06900
C2729       C  0.81245540  0.09645086  0.11793216    -0.18100
C2730       C  0.82994151  0.07584325  0.10479427     0.10300
S2731       S  0.86855673  0.07734538  0.16356232    -0.33100
S2732       S  0.81234332  0.07390326  0.08241031    -0.33100
H2733       H  0.78145255  0.09308120  0.08566967     0.28300
H2734       H  0.90156544  0.06256179  0.15976469     0.28300
H2735       H  0.89264542  0.04144759  0.13175716     0.18900
H2736       H  0.79000023  0.11148266  0.11361807     0.18900
C2737       C  0.00122947  0.78969819  0.03436715    -0.07000
C2738       C  0.98401860  0.75687367  0.03610047    -0.18100
C2739       C  0.00227236  0.72453603  0.03549334     0.10200
C2740       C  0.03924798  0.72406087  0.03318477    -0.06900
C2741       C  0.05624410  0.75676099  0.03040718    -0.18100
C2742       C  0.03792127  0.78922267  0.03105090     0.10300
S2743       S  0.97711059  0.68509860  0.03982622    -0.33100
S2744       S  0.06364929  0.82911592  0.02940569    -0.33100
H2745       H  0.04565217  0.84771097  0.04274357     0.28300
H2746       H  0.99915023  0.66209036  0.03048538     0.28300
H2747       H  0.95612314  0.75646312  0.03900295     0.18900
H2748       H  0.08461111  0.75725302  0.02915017     0.18900
C2749       C  0.47944503  0.51330154  0.99054069    -0.07000
C2750       C  0.48944000  0.53159721  0.00619616    -0.18100
C2751       C  0.52330497  0.52868028  0.01379267     0.10200
C2752       C  0.54834471  0.50539864  0.00631812    -0.06900
C2753       C  0.53835181  0.48740034  0.99055532    -0.18100
C2754       C  0.50483405  0.49089744  0.98267347     0.10300
S2755       S  0.53278447  0.55633968  0.03269126    -0.33100
S2756       S  0.49579434  0.46632266  0.96248666    -0.33100
H2757       H  0.53091298  0.45886636  0.95808198     0.28300
H2758       H  0.56506048  0.56815315  0.02572412     0.28300
H2759       H  0.47108814  0.54979314  0.01223336     0.18900
H2760       H  0.55681449  0.46953440  0.98441645     0.18900
C2761       C  0.74675002  0.48843036  0.01283247    -0.07000
C2762       C  0.73385936  0.48664086  0.99522077    -0.18100
C2763       C  0.75681553  0.48372908  0.98052274     0.10200
C2764       C  0.79349627  0.48292492  0.98337755    -0.06900
C2765       C  0.80634852  0.48781004  0.00082620    -0.18100
C2766       C  0.78348724  0.49043746  0.01548355     0.10300
S2767       S  0.73922757  0.47991819  0.95820737    -0.33100
S2768       S  0.80264266  0.49453397  0.03741293    -0.33100
H2769       H  0.77359467  0.51149204  0.04514561     0.28300
H2770       H  0.70400604  0.48659126  0.96272676     0.28300
H2771       H  0.70574155  0.48477283  0.99308970     0.18900
H2772       H  0.83446287  0.48741883  0.00320938     0.18900
C2773       C  0.54621944  0.29252099  0.02975060    -0.07000
C2774       C  0.50931388  0.29506455  0.02945669    -0.18100
C2775       C  0.48737974  0.26468124  0.02982724     0.10200
C2776       C  0.50207128  0.23031188  0.02969137    -0.06900
C2777       C  0.53894720  0.22780488  0.02886607    -0.18100
C2778       C  0.56088899  0.25811606  0.02913627     0.10300
S2779       S  0.44041020  0.27000938  0.03177144    -0.33100
S2780       S  0.60768779  0.25103675  0.03013162    -0.33100
H2781       H  0.61730090  0.28398622  0.02298711     0.28300
H2782       H  0.44110982  0.30596446  0.03643119     0.28300
H2783       H  0.49761411  0.32098207  0.03042997     0.18900
H2784       H  0.55094914  0.20195567  0.02948547     0.18900
C2785       C  0.47958206  0.35755933  0.08118507    -0.07000
C2786       C  0.47905584  0.32656504  0.09131200    -0.18100
C2787       C  0.45314674  0.32214048  0.10424919     0.10200
C2788       C  0.42888132  0.34963824  0.10693968    -0.06900
C2789       C  0.42375484  0.37457652  0.09340448    -0.18100
C2790       C  0.44861666  0.37774764  0.07987820     0.10300
S2791       S  0.45239281  0.28290981  0.11783894    -0.33100
S2792       S  0.44270636  0.40984371  0.06231219    -0.33100
H2793       H  0.40726932  0.41713824  0.06608074     0.28300
H2794       H  0.47871496  0.26473619  0.10849677     0.28300
H2795       H  0.50098437  0.30849191  0.09081095     0.18900
H2796       H  0.40284213  0.39376279  0.09440811     0.18900
C2797       C  0.60697692  0.35394456  0.13456224    -0.07000
C2798       C  0.63255789  0.36020389  0.14771382    -0.18100
C2799       C  0.64067095  0.33397254  0.16006917     0.10200
C2800       C  0.62331852  0.30112149  0.15863024    -0.06900
C2801       C  0.59226818  0.29866603  0.14858489    -0.18100
C2802       C  0.58360701  0.32524300  0.13662918     0.10300
S2803       S  0.67479047  0.34166922  0.17649115    -0.33100
S2804       S  0.54445841  0.31945897  0.12339230    -0.33100
H2805       H  0.54013166  0.35557115  0.11966595     0.28300
H2806       H  0.68261157  0.37662220  0.17154845     0.28300
H2807       H  0.64885554  0.38364021  0.14707579     0.18900
H2808       H  0.57688861  0.27453042  0.14845250     0.18900
C2809       C  0.77578882  0.73440790  0.23720371    -0.07000
C2810       C  0.79468443  0.74550208  0.25248800    -0.18100
C2811       C  0.78928944  0.77841822  0.26069088     0.10200
C2812       C  0.76394866  0.80195087  0.25361190    -0.06900
C2813       C  0.74462657  0.79071742  0.23847536    -0.18100
C2814       C  0.74942057  0.75731870  0.23063035     0.10300
S2815       S  0.81405964  0.78840639  0.28073308    -0.33100
S2816       S  0.71926892  0.74508466  0.21312068    -0.33100
H2817       H  0.71302108  0.71119674  0.22011798     0.28300
H2818       H  0.83825474  0.76054516  0.27960749     0.28300
H2819       H  0.81424474  0.72815663  0.25817098     0.18900
H2820       H  0.72413195  0.80747519  0.23312658     0.18900
C2821       C  0.79517590  0.54283392  0.23559839    -0.07000
C2822       C  0.80130689  0.55510567  0.25305050    -0.18100
C2823       C  0.80253060  0.53192767  0.26771068     0.10200
C2824       C  0.79792408  0.49528009  0.26507528    -0.06900
C2825       C  0.78891124  0.48334109  0.24785473    -0.18100
C2826       C  0.78766921  0.50656709  0.23315028     0.10300
S2827       S  0.81149137  0.55048594  0.28941004    -0.33100
S2828       S  0.77887692  0.48777579  0.21145224    -0.33100
H2829       H  0.77310760  0.51953792  0.20225096     0.28300
H2830       H  0.79436259  0.52379026  0.29916813     0.28300
H2831       H  0.80744033  0.58274910  0.25514728     0.18900
H2832       H  0.78525576  0.45533262  0.24557750     0.18900
C2833       C  0.99053869  0.74187892  0.21608650    -0.07000
C2834       C  0.02382692  0.72554302  0.21696279    -0.18100
C2835       C  0.05564722  0.74521447  0.21661297     0.10200
C2836       C  0.05479302  0.78241789  0.21531486    -0.06900
C2837       C  0.02156707  0.79878538  0.21511673    -0.18100
C2838       C  0.98988572  0.77923499  0.21566134     0.10300
S2839       S  0.09716551  0.72241632  0.21549270    -0.33100
S2840       S  0.94947332  0.80331546  0.21330969    -0.33100
H2841       H  0.93200110  0.78427572  0.22672513     0.28300
H2842       H  0.08350836  0.68802616  0.21709291     0.28300
H2843       H  0.02486725  0.69701728  0.21664899     0.18900
H2844       H  0.02023194  0.82716662  0.21352418     0.18900
C2845       C  0.93113920  0.67693534  0.11150882    -0.07000
C2846       C  0.92351127  0.65236193  0.09803918    -0.18100
C2847       C  0.94866375  0.64483311  0.08512039     0.10200
C2848       C  0.98138609  0.66229245  0.08611698    -0.06900
C2849       C  0.98481340  0.69268548  0.09662272    -0.18100
C2850       C  0.95981462  0.70015446  0.10945830     0.10300
S2851       S  0.94013736  0.61107471  0.06862105    -0.33100
S2852       S  0.96810763  0.73688956  0.12406709    -0.33100
H2853       H  0.93265764  0.74159611  0.12876746     0.28300
H2854       H  0.90548608  0.60333189  0.07388810     0.28300
H2855       H  0.90017782  0.63603439  0.09892374     0.18900
H2856       H  0.00898618  0.70792962  0.09660900     0.18900
C2857       C  0.93108114  0.80264249  0.16381719    -0.07000
C2858       C  0.96263762  0.80418403  0.15434318    -0.18100
C2859       C  0.96761267  0.83094626  0.14190394     0.10200
C2860       C  0.94037597  0.85561770  0.13930468    -0.06900
C2861       C  0.91485282  0.85973092  0.15254698    -0.18100
C2862       C  0.91053826  0.83342120  0.16532419     0.10300
S2863       S  0.00691685  0.83017681  0.12856129    -0.33100
S2864       S  0.87636417  0.83725982  0.18191246    -0.33100
H2865       H  0.86738343  0.87242701  0.17805386     0.28300
H2866       H  0.00554142  0.86604649  0.12376081     0.28300
H2867       H  0.98089124  0.78236654  0.15474152     0.18900
H2868       H  0.89568852  0.88069705  0.15157444     0.18900
C2869       C  0.73282152  0.59590071  0.13479285    -0.07000
C2870       C  0.73947259  0.59942724  0.11607426    -0.18100
C2871       C  0.72093829  0.58018881  0.10261618     0.10200
C2872       C  0.69365244  0.55642301  0.10726872    -0.06900
C2873       C  0.68517202  0.55508931  0.12580142    -0.18100
C2874       C  0.70371480  0.57428589  0.13923906     0.10300
S2875       S  0.73514542  0.58552686  0.07988233    -0.33100
S2876       S  0.68976453  0.56866725  0.16193925    -0.33100
H2877       H  0.68964645  0.60513658  0.16543517     0.28300
H2878       H  0.73569072  0.54918454  0.07615987     0.28300
H2879       H  0.76082250  0.61628054  0.11170684     0.18900
H2880       H  0.66407477  0.53783868  0.13009897     0.18900
C2881       C  0.75898439  0.29041301  0.73957711    -0.07000
C2882       C  0.74144233  0.28044995  0.75542291    -0.18100
C2883       C  0.74500650  0.24667233  0.76313646     0.10200
C2884       C  0.76747961  0.22151761  0.75515306    -0.06900
C2885       C  0.78503872  0.23149568  0.73934544    -0.18100
C2886       C  0.78182429  0.26534414  0.73183192     0.10300
S2887       S  0.72101579  0.23686439  0.78335503    -0.33100
S2888       S  0.80869182  0.27473952  0.71268752    -0.33100
H2889       H  0.82114695  0.30696771  0.71962017     0.28300
H2890       H  0.70378335  0.26943480  0.78504884     0.28300
H2891       H  0.72400800  0.29915242  0.76170124     0.18900
H2892       H  0.80302427  0.21316783  0.73313112     0.18900
C2893       C  0.73671528  0.48140521  0.73367609    -0.07000
C2894       C  0.73512311  0.51806692  0.73113511    -0.18100
C2895       C  0.73670298  0.54168107  0.74568385     0.10200
C2896       C  0.73864713  0.52854134  0.76334917    -0.06900
C2897       C  0.74162073  0.49198706  0.76585499    -0.18100
C2898       C  0.74155584  0.46850492  0.75129286     0.10300
S2899       S  0.73287479  0.58849065  0.74165270    -0.33100
S2900       S  0.74365283  0.42206158  0.75626775    -0.33100
H2901       H  0.76802046  0.41439691  0.74278405     0.28300
H2902       H  0.73494442  0.58685301  0.72293212     0.28300
H2903       H  0.73097471  0.52810222  0.71776747     0.18900
H2904       H  0.74260696  0.48152588  0.77930745     0.18900
C2905       C  0.99168267  0.51523426  0.50773626    -0.07000
C2906       C  0.00296559  0.53567087  0.49298434    -0.18100
C2907       C  0.03673667  0.53295428  0.48554579     0.10200
C2908       C  0.06052537  0.50716301  0.49182971    -0.06900
C2909       C  0.04937302  0.48631999  0.50650044    -0.18100
C2910       C  0.01565873  0.48970173  0.51426978     0.10300
S2911       S  0.04728530  0.56347670  0.46793650    -0.33100
S2912       S  0.00458243  0.45927119  0.53180724    -0.33100
H2913       H  0.97121273  0.45134538  0.52467237     0.28300
H2914       H  0.07933958  0.57372420  0.47587389     0.28300
H2915       H  0.98551945  0.55511500  0.48724608     0.18900
H2916       H  0.06651040  0.46581464  0.51153123     0.18900
C2917       C  0.79375976  0.53768017  0.51227892    -0.07000
C2918       C  0.75750017  0.53850995  0.51558775    -0.18100
C2919       C  0.73293757  0.54040864  0.50153038     0.10200
C2920       C  0.74471312  0.54188596  0.48366983    -0.06900
C2921       C  0.78091895  0.53971696  0.48028921    -0.18100
C2922       C  0.80550273  0.53734969  0.49437543     0.10300
S2923       S  0.68670978  0.54443708  0.50657916    -0.33100
S2924       S  0.85196370  0.53719030  0.48943268    -0.33100
H2925       H  0.84879106  0.54455497  0.47109844     0.28300
H2926       H  0.69024414  0.54607334  0.52525011     0.28300
H2927       H  0.74858390  0.53964091  0.52928080     0.18900
H2928       H  0.78994253  0.54140077  0.46662602     0.18900
C2929       C  0.84014950  0.47022346  0.60849372    -0.07000
C2930       C  0.84489065  0.47561985  0.62724554    -0.18100
C2931       C  0.82598236  0.45694323  0.64067637     0.10200
C2932       C  0.80076854  0.43100115  0.63603310    -0.06900
C2933       C  0.79737597  0.42411120  0.61732876    -0.18100
C2934       C  0.81598153  0.44320879  0.60383537     0.10300
S2935       S  0.83309787  0.46976169  0.66349311    -0.33100
S2936       S  0.80568943  0.43343470  0.58091903    -0.33100
H2937       H  0.80326124  0.46897889  0.57568716     0.28300
H2938       H  0.83905097  0.43500512  0.66927660     0.28300
H2939       H  0.86314255  0.49574302  0.63172299     0.18900
H2940       H  0.77850346  0.40445576  0.61295907     0.18900
C2941       C  0.76162766  0.72340884  0.75908247    -0.07000
C2942       C  0.74428306  0.73389437  0.74324063    -0.18100
C2943       C  0.75138471  0.76613154  0.73460587     0.10200
C2944       C  0.77588611  0.79022378  0.74208142    -0.06900
C2945       C  0.79353795  0.77966527  0.75784037    -0.18100
C2946       C  0.78749610  0.74662103  0.76607895     0.10300
S2947       S  0.72966267  0.77434114  0.71356698    -0.33100
S2948       S  0.81438322  0.73437440  0.78497042    -0.33100
H2949       H  0.82911619  0.76787279  0.78817214     0.28300
H2950       H  0.72797219  0.73866138  0.70840170     0.28300
H2951       H  0.72464549  0.71666568  0.73737691     0.18900
H2952       H  0.81348365  0.79690915  0.76339651     0.18900
C2953       C  0.78814311  0.97920666  0.73251039    -0.07000
C2954       C  0.78654214  0.96827558  0.75039265    -0.18100
C2955       C  0.78412587  0.99282527  0.76439537     0.10200
C2956       C  0.78295890  0.02940174  0.76062052    -0.06900
C2957       C  0.78108935  0.04005301  0.74266778    -0.18100
C2958       C  0.78367930  0.01544139  0.72864763     0.10300
S2959       S  0.78617683  0.97610062  0.78690558    -0.33100
S2960       S  0.78375035  0.03202157  0.70611182    -0.33100
H2961       H  0.77149894  0.00064426  0.69818817     0.28300
H2962       H  0.77066776  0.00565300  0.79498039     0.28300
H2963       H  0.79004965  0.94061165  0.75357360     0.18900
H2964       H  0.78069845  0.06795532  0.73951686     0.18900
C2965       C  0.93128127  0.71994632  0.65932844    -0.07000
C2966       C  0.91305945  0.68818346  0.66205267    -0.18100
C2967       C  0.91796491  0.65974679  0.65053911     0.10200
C2968       C  0.94045259  0.66445572  0.63572541    -0.06900
C2969       C  0.96488871  0.69231509  0.63606613    -0.18100
C2970       C  0.96096931  0.72004691  0.64809818     0.10300
S2971       S  0.89274349  0.61988844  0.65413906    -0.33100
S2972       S  0.99162273  0.75642794  0.64741569    -0.33100
H2973       H  0.01639816  0.74036548  0.63617197     0.28300
H2974       H  0.88180220  0.62792408  0.67158782     0.28300
H2975       H  0.89232643  0.68699426  0.67191371     0.18900
H2976       H  0.98463733  0.69428713  0.62572624     0.18900
C2977       C  0.49270260  0.00753603  0.49041696    -0.07000
C2978       C  0.50477837  0.98662324  0.50479821    -0.18100
C2979       C  0.53921559  0.98903009  0.51168333     0.10200
C2980       C  0.56306723  0.01426818  0.50468239    -0.06900
C2981       C  0.55099141  0.03557370  0.49043253    -0.18100
C2982       C  0.51644710  0.03289115  0.48343272     0.10300
S2983       S  0.55150278  0.95895340  0.52933812    -0.33100
S2984       S  0.50346857  0.06275330  0.46586828    -0.33100
H2985       H  0.53054895  0.08759195  0.46855974     0.28300
H2986       H  0.51719959  0.95158226  0.53527281     0.28300
H2987       H  0.48732933  0.96709751  0.51051866     0.18900
H2988       H  0.56854832  0.05532933  0.48498128     0.18900
C2989       C  0.74591356  0.03881666  0.51217208    -0.07000
C2990       C  0.73415297  0.03957857  0.49439611    -0.18100
C2991       C  0.75788505  0.03865818  0.48004075     0.10200
C2992       C  0.79452443  0.03725284  0.48329550    -0.06900
C2993       C  0.80616863  0.03400088  0.50107288    -0.18100
C2994       C  0.78225147  0.03483666  0.51549090     0.10300
S2995       S  0.73998527  0.04123439  0.45776729    -0.33100
S2996       S  0.79825343  0.03274385  0.53815990    -0.33100
H2997       H  0.83355335  0.02590769  0.53387401     0.28300
H2998       H  0.76834844  0.02446474  0.44931312     0.28300
H2999       H  0.70633470  0.04263391  0.49166450     0.18900
H3000       H  0.83416276  0.03346065  0.50371886     0.18900
C3001       C  0.61612336  0.20808556  0.66459478    -0.07000
C3002       C  0.58473438  0.20613317  0.65485604    -0.18100
C3003       C  0.58031754  0.17955731  0.64220828     0.10200
C3004       C  0.60835051  0.15607857  0.63912159    -0.06900
C3005       C  0.63451646  0.15254843  0.65215752    -0.18100
C3006       C  0.63769239  0.17788346  0.66547475     0.10300
S3007       S  0.53987296  0.17810793  0.62972271    -0.33100
S3008       S  0.67128320  0.17202303  0.68219725    -0.33100
H3009       H  0.65640099  0.19590376  0.69438996     0.28300
H3010       H  0.54226839  0.14211713  0.62528956     0.28300
H3011       H  0.56556558  0.22710756  0.65564025     0.18900
H3012       H  0.65437431  0.13225487  0.65107829     0.18900
C3013       C  0.73191410  0.92362333  0.63707065    -0.07000
C3014       C  0.73838385  0.91828527  0.61851091    -0.18100
C3015       C  0.71974159  0.93594317  0.60467939     0.10200
C3016       C  0.69284783  0.96014542  0.60884070    -0.06900
C3017       C  0.68430149  0.96304397  0.62736548    -0.18100
C3018       C  0.70351513  0.94590042  0.64126941     0.10300
S3019       S  0.73378870  0.92876212  0.58210074    -0.33100
S3020       S  0.69362899  0.95536983  0.66430260    -0.33100
H3021       H  0.66735320  0.98059044  0.66104504     0.28300
H3022       H  0.69938996  0.92456563  0.57550054     0.28300
H3023       H  0.75959753  0.90105364  0.61458723     0.18900
H3024       H  0.66340412  0.98075285  0.63114885     0.18900
C3025       C  0.26293740  0.71656601  0.74377551    -0.07000
C3026       C  0.27774696  0.74464793  0.73404659    -0.18100
C3027       C  0.28155674  0.77861326  0.74139853     0.10200
C3028       C  0.27261030  0.78509292  0.75948171    -0.06900
C3029       C  0.25723376  0.75728431  0.76916493    -0.18100
C3030       C  0.25221694  0.72356244  0.76157834     0.10300
S3031       S  0.29624563  0.81317739  0.72660296    -0.33100
S3032       S  0.23324404  0.69008348  0.77562876    -0.33100
H3033       H  0.25357968  0.66286330  0.76836454     0.28300
H3034       H  0.27805674  0.84033548  0.73539094     0.28300
H3035       H  0.28443163  0.74080366  0.72014429     0.18900
H3036       H  0.25064272  0.76123937  0.78307160     0.18900
C3037       C  0.23976478  0.53367263  0.73450110    -0.07000
C3038       C  0.23423939  0.49773884  0.73082401    -0.18100
C3039       C  0.23322410  0.47239765  0.74444098     0.10200
C3040       C  0.23773081  0.48268015  0.76240116    -0.06900
C3041       C  0.24488926  0.51834328  0.76615837    -0.18100
C3042       C  0.24568568  0.54390012  0.75245983     0.10300
S3043       S  0.22183974  0.42778538  0.73828629    -0.33100
S3044       S  0.25071747  0.58934264  0.75899185    -0.33100
H3045       H  0.22582400  0.60283592  0.74692123     0.28300
H3046       H  0.24231803  0.41149726  0.75155702     0.28300
H3047       H  0.22873226  0.48954388  0.71724038     0.18900
H3048       H  0.24724128  0.52674722  0.77993451     0.18900
C3049       C  0.98970533  0.77499890  0.71362067    -0.07000
C3050       C  0.02296460  0.79092516  0.71611516    -0.18100
C3051       C  0.05453621  0.77128095  0.71552521     0.10200
C3052       C  0.05352992  0.73448391  0.71210468    -0.06900
C3053       C  0.02015422  0.71834881  0.71061890    -0.18100
C3054       C  0.98857186  0.73794278  0.71156037     0.10300
S3055       S  0.09528716  0.79535160  0.71780910    -0.33100
S3056       S  0.94697632  0.71580779  0.70823071    -0.33100
H3057       H  0.95990350  0.68122489  0.70979328     0.28300
H3058       H  0.11358388  0.77685048  0.70454780     0.28300
H3059       H  0.02452738  0.81935157  0.71744541     0.18900
H3060       H  0.01888724  0.69038396  0.70774312     0.18900
C3061       C  0.11761242  0.66499294  0.60773977    -0.07000
C3062       C  0.12184060  0.63842058  0.59497030    -0.18100
C3063       C  0.09652534  0.63384127  0.58176520     0.10200
C3064       C  0.06587494  0.65472348  0.58246209    -0.06900
C3065       C  0.06675902  0.68649300  0.59200866    -0.18100
C3066       C  0.09308259  0.69210906  0.60464823     0.10300
S3067       S  0.10314248  0.59921766  0.56563382    -0.33100
S3068       S  0.09349169  0.73224177  0.61762030    -0.33100
H3069       H  0.06861639  0.75038837  0.60721970     0.28300
H3070       H  0.07826474  0.61191088  0.55330483     0.28300
H3071       H  0.14275338  0.61923972  0.59623817     0.18900
H3072       H  0.04476364  0.70450106  0.59140046     0.18900
C3073       C  0.48645181  0.50314695  0.50744973    -0.07000
C3074       C  0.49452039  0.48745992  0.49087479    -0.18100
C3075       C  0.52687162  0.49322000  0.48211813     0.10200
C3076       C  0.55250088  0.51571573  0.48991804    -0.06900
C3077       C  0.54467736  0.53058663  0.50674071    -0.18100
C3078       C  0.51237976  0.52485244  0.51547599     0.10300
S3079       S  0.53430879  0.47178116  0.46096179    -0.33100
S3080       S  0.50559864  0.54476316  0.53711303    -0.33100
H3081       H  0.53705227  0.56431779  0.53787931     0.28300
H3082       H  0.50242450  0.45294100  0.46004512     0.28300
H3083       H  0.47520928  0.47027952  0.48472077     0.18900
H3084       H  0.56397100  0.54754346  0.51305416     0.18900
C3085       C  0.30218067  0.49228390  0.50679977    -0.07000
C3086       C  0.26731491  0.49909890  0.51180567    -0.18100
C3087       C  0.23985555  0.49912743  0.49915411     0.10200
C3088       C  0.24723759  0.49212649  0.48098893    -0.06900
C3089       C  0.28247366  0.48806157  0.47585532    -0.18100
C3090       C  0.30983978  0.48822339  0.48846857     0.10300
S3091       S  0.19559332  0.50275088  0.50747081    -0.33100
S3092       S  0.35361484  0.47872233  0.48064523    -0.33100
H3093       H  0.37138464  0.49452886  0.49507718     0.28300
H3094       H  0.18152976  0.51901468  0.49223109     0.28300
H3095       H  0.26093394  0.50110422  0.52585255     0.18900
H3096       H  0.28848660  0.48205861  0.46205812     0.18900
C3097       C  0.54452106  0.22503281  0.53490963    -0.07000
C3098       C  0.50934231  0.22530827  0.52896326    -0.18100
C3099       C  0.48940326  0.25694838  0.52817838     0.10200
C3100       C  0.50442410  0.28994404  0.53329123    -0.06900
C3101       C  0.54024353  0.28995121  0.53801064    -0.18100
C3102       C  0.56014280  0.25832649  0.53891654     0.10300
S3103       S  0.44404150  0.25320994  0.52138356    -0.33100
S3104       S  0.60563744  0.26064021  0.54585384    -0.33100
H3105       H  0.60636542  0.29687505  0.54987124     0.28300
H3106       H  0.44031963  0.28845458  0.51584978     0.28300
H3107       H  0.49648811  0.20042722  0.52600213     0.18900
H3108       H  0.55210037  0.31462102  0.54218608     0.18900
C3109       C  0.54516519  0.34930602  0.58976257    -0.07000
C3110       C  0.54504344  0.31805181  0.59967078    -0.18100
C3111       C  0.57320975  0.31037038  0.61086393     0.10200
C3112       C  0.60088437  0.33511383  0.61248218    -0.06900
C3113       C  0.60445756  0.36152076  0.59953032    -0.18100
C3114       C  0.57679506  0.36859939  0.58787354     0.10300
S3115       S  0.57102696  0.27035594  0.62367789    -0.33100
S3116       S  0.58116724  0.40377395  0.57169061    -0.33100
H3117       H  0.61536727  0.41445265  0.57650643     0.28300
H3118       H  0.60746929  0.26826472  0.62677872     0.28300
H3119       H  0.52173369  0.30154283  0.60015925     0.18900
H3120       H  0.62696025  0.37908540  0.59982981     0.18900
C3121       C  0.34760004  0.54165195  0.60991002    -0.07000
C3122       C  0.34662805  0.53011269  0.62807561    -0.18100
C3123       C  0.33058613  0.54970140  0.64214947     0.10200
C3124       C  0.31615532  0.58335906  0.63886484    -0.06900
C3125       C  0.31952704  0.59609146  0.62101265    -0.18100
C3126       C  0.33392308  0.57579794  0.60675995     0.10300
S3127       S  0.32553537  0.52979730  0.66385966    -0.33100
S3128       S  0.33059101  0.59362864  0.58457928    -0.33100
H3129       H  0.31757203  0.56224038  0.57697154     0.28300
H3130       H  0.33321146  0.49508701  0.65853690     0.28300
H3131       H  0.35716639  0.50441368  0.63126487     0.18900
H3132       H  0.30797264  0.62135650  0.61772081     0.18900
C3133       C  0.27265191  0.22945332  0.73855896    -0.07000
C3134       C  0.28877107  0.23962900  0.75481426    -0.18100
C3135       C  0.28296003  0.27265487  0.76291134     0.10200
C3136       C  0.25958196  0.29704803  0.75491780    -0.06900
C3137       C  0.24393415  0.28730242  0.73848099    -0.18100
C3138       C  0.25002326  0.25428846  0.73034402     0.10300
S3139       S  0.30492290  0.28216851  0.78382609    -0.33100
S3140       S  0.22830783  0.24597282  0.70941196    -0.33100
H3141       H  0.21294629  0.21427066  0.71535248     0.28300
H3142       H  0.32215040  0.24967433  0.78592391     0.28300
H3143       H  0.30656248  0.22147581  0.76130412     0.18900
H3144       H  0.22566589  0.30523106  0.73211024     0.18900
C3145       C  0.28999607  0.98235166  0.76939330    -0.07000
C3146       C  0.29569095  0.01836557  0.77281839    -0.18100
C3147       C  0.29503460  0.04350634  0.75899995     0.10200
C3148       C  0.28892882  0.03265797  0.74123396    -0.06900
C3149       C  0.28068544  0.99709941  0.73794222    -0.18100
C3150       C  0.28087525  0.97189415  0.75183225     0.10300
S3151       S  0.30591473  0.08890721  0.76388180    -0.33100
S3152       S  0.27350368  0.92591087  0.74661752    -0.33100
H3153       H  0.27355402  0.92957759  0.72793974     0.28300
H3154       H  0.30192157  0.08629760  0.78249772     0.28300
H3155       H  0.30309187  0.02645818  0.78617574     0.18900
H3156       H  0.27649053  0.98871980  0.72428984     0.18900
C3157       C  0.48582687  0.23241480  0.71536589    -0.07000
C3158       C  0.48331203  0.26887369  0.71869705    -0.18100
C3159       C  0.51354340  0.29079875  0.71956582     0.10200
C3160       C  0.54770465  0.27629135  0.71762882    -0.06900
C3161       C  0.55025571  0.23952511  0.71572986    -0.18100
C3162       C  0.52007646  0.21772113  0.71433728     0.10300
S3163       S  0.50663138  0.33762105  0.72181495    -0.33100
S3164       S  0.52579113  0.17103934  0.71057182    -0.33100
H3165       H  0.56156238  0.17259641  0.70588978     0.28300
H3166       H  0.54090387  0.34612432  0.72746988     0.28300
H3167       H  0.45754045  0.28087001  0.71929699     0.18900
H3168       H  0.57605556  0.22814662  0.71387368     0.18900
C3169       C  0.38970497  0.26021773  0.64121851    -0.07000
C3170       C  0.40405285  0.29145722  0.64810465    -0.18100
C3171       C  0.39874894  0.32325348  0.63923140     0.10200
C3172       C  0.37762604  0.32345120  0.62378955    -0.06900
C3173       C  0.36087033  0.29294237  0.61789285    -0.18100
C3174       C  0.36854858  0.26084654  0.62562533     0.10300
S3175       S  0.42175070  0.36184578  0.64720110    -0.33100
S3176       S  0.35425309  0.22118240  0.61407555    -0.33100
H3177       H  0.33242991  0.23739173  0.60131777     0.28300
H3178       H  0.39922621  0.38648996  0.63915020     0.28300
H3179       H  0.41997288  0.29095783  0.66012181     0.18900
H3180       H  0.34592366  0.29365748  0.60554754     0.18900
C3181       C  0.42550168  0.14988707  0.61364956    -0.07000
C3182       C  0.41994839  0.12360581  0.60079178    -0.18100
C3183       C  0.44440794  0.11896211  0.58713245     0.10200
C3184       C  0.47466007  0.14061071  0.58693750    -0.06900
C3185       C  0.47457451  0.17207900  0.59656969    -0.18100
C3186       C  0.45068919  0.17668595  0.61031925     0.10300
S3187       S  0.43823815  0.08419254  0.57095207    -0.33100
S3188       S  0.45564338  0.21502072  0.62429309    -0.33100
H3189       H  0.48153774  0.23261018  0.61426045     0.28300
H3190       H  0.40411445  0.07455369  0.57630522     0.28300
H3191       H  0.39903260  0.10447408  0.60254749     0.18900
H3192       H  0.49624066  0.19047817  0.59523552     0.18900
C3193       C  0.98005246  0.01677617  0.49210683    -0.07000
C3194       C  0.00638472  0.99987244  0.48219948    -0.18100
C3195       C  0.04024667  0.99423684  0.48918367     0.10200
C3196       C  0.04842714  0.00394854  0.50704624    -0.06900
C3197       C  0.02214799  0.02100985  0.51696630    -0.18100
C3198       C  0.98843426  0.02744649  0.50978827     0.10300
S3199       S  0.07239740  0.97618157  0.47411740    -0.33100
S3200       S  0.95685474  0.04827196  0.52419590    -0.33100
H3201       H  0.92726525  0.03171722  0.51655215     0.28300
H3202       H  0.10117426  0.99402503  0.48183018     0.28300
H3203       H  0.00132304  0.99287187  0.46840629     0.18900
H3204       H  0.02726281  0.02791871  0.53076159     0.18900
C3205       C  0.29549290  0.98857181  0.48736818    -0.07000
C3206       C  0.25951706  0.99378323  0.48408609    -0.18100
C3207       C  0.23479572  0.99352277  0.49811937     0.10200
C3208       C  0.24610381  0.98722237  0.51585991    -0.06900
C3209       C  0.28230292  0.98395698  0.51919776    -0.18100
C3210       C  0.30701654  0.98487339  0.50523091     0.10300
S3211       S  0.18850087  0.99714491  0.49298462    -0.33100
S3212       S  0.35295624  0.97768698  0.51016822    -0.33100
H3213       H  0.34984766  0.97757274  0.52886883     0.28300
H3214       H  0.19224688  0.00318634  0.47456642     0.28300
H3215       H  0.25061927  0.99600566  0.47039741     0.18900
H3216       H  0.29098836  0.97860825  0.53270143     0.18900
C3217       C  0.10611135  0.85000190  0.63607739    -0.07000
C3218       C  0.13291820  0.85537471  0.64864522    -0.18100
C3219       C  0.13930934  0.83009008  0.66174002     0.10200
C3220       C  0.11928883  0.79855399  0.66141170    -0.06900
C3221       C  0.08753519  0.79789360  0.65182188    -0.18100
C3222       C  0.08066296  0.82382066  0.63917081     0.10300
S3223       S  0.17440197  0.83737493  0.67769867    -0.33100
S3224       S  0.04050592  0.82123750  0.62660606    -0.33100
H3225       H  0.03944801  0.85722939  0.62205665     0.28300
H3226       H  0.18807154  0.86831811  0.66996009     0.28300
H3227       H  0.15086443  0.87740986  0.64717130     0.18900
H3228       H  0.07007110  0.77532366  0.65261046     0.18900
C3229       C  0.04399990  0.78809733  0.53017101    -0.07000
C3230       C  0.05957026  0.75464882  0.53217979    -0.18100
C3231       C  0.03963273  0.72313726  0.53232615     0.10200
C3232       C  0.00251926  0.72409942  0.53059611    -0.06900
C3233       C  0.98696233  0.75742030  0.52786816    -0.18100
C3234       C  0.00708760  0.78899849  0.52743117     0.10300
S3235       S  0.06297823  0.68298105  0.53712151    -0.33100
S3236       S  0.98361237  0.82999325  0.52580948    -0.33100
H3237       H  0.00768282  0.84548555  0.51395358     0.28300
H3238       H  0.04005456  0.66049220  0.52778845     0.28300
H3239       H  0.08755010  0.75317303  0.53484430     0.18900
H3240       H  0.95856844  0.75913947  0.52715866     0.18900
C3241       C  0.97705097  0.85048782  0.58210239    -0.07000
C3242       C  0.94788217  0.87293688  0.58142190    -0.18100
C3243       C  0.92599436  0.87575896  0.59620356     0.10200
C3244       C  0.93244838  0.85342418  0.61100648    -0.06900
C3245       C  0.95437538  0.82392685  0.60872477    -0.18100
C3246       C  0.97587362  0.82149728  0.59371253     0.10300
S3247       S  0.89405962  0.91097920  0.59647656    -0.33100
S3248       S  0.00257542  0.78296952  0.58985363    -0.33100
H3249       H  0.98899617  0.76282834  0.60404779     0.28300
H3250       H  0.89438927  0.91786995  0.57802135     0.28300
H3251       H  0.94645788  0.89289808  0.57109726     0.18900
H3252       H  0.95594473  0.80391579  0.61900452     0.18900
C3253       C  0.18414401  0.05013274  0.61100060    -0.07000
C3254       C  0.17410761  0.04664429  0.62929226    -0.18100
C3255       C  0.19300038  0.06235882  0.64374413     0.10200
C3256       C  0.22373952  0.08242609  0.64048410    -0.06900
C3257       C  0.23158112  0.08869835  0.62211695    -0.18100
C3258       C  0.21258267  0.07323228  0.60769815     0.10300
S3259       S  0.17833504  0.05309625  0.66603984    -0.33100
S3260       S  0.22812450  0.08136161  0.58544721    -0.33100
H3261       H  0.19423229  0.08586483  0.57829162     0.28300
H3262       H  0.18219431  0.08817514  0.67182055     0.28300
H3263       H  0.15214422  0.02957977  0.63254915     0.18900
H3264       H  0.25408504  0.10495075  0.61880319     0.18900
loop_ 
_geom_bond_atom_site_label_1 
_geom_bond_atom_site_label_2 
_geom_bond_distance 
_geom_bond_site_symmetry_2 
_ccdc_geom_bond_type 
Zr1           O2   2.435   1_565  S
Zr1           O3   2.480       .  S
Zr1           O4   2.620   1_565  S
Zr1           O7   2.533   1_565  S
Zr1           O9   2.378       .  S
Zr1          O10   2.434       .  S
Zr1          O11   2.408       .  S
Zr1          O12   2.404       .  S
O2           H58   0.990       .  S
O2           H66   0.990       .  S
O3           C23   1.293       .  A
O4           C25   1.323       .  A
O5          Zr15   2.431       .  S
O5           C24   1.282       .  A
O6          Zr14   2.355       .  S
O6           C25   1.270   1_565  A
O7           C24   1.307   1_545  A
O8          Zr16   2.442       .  S
O8           C23   1.286       .  A
O9          Zr14   2.394       .  S
O9          Zr16   2.382       .  S
O10         Zr15   2.400       .  S
O10         Zr16   2.381       .  S
O10          H45   0.964       .  S
O11         Zr14   2.389       .  S
O11         Zr31   2.412       .  S
O11          H48   0.966       .  S
O12         Zr15   2.404       .  S
O12         Zr31   2.346       .  S
Zr13         O38   2.438       .  S
Zr13         O32   2.421       .  S
Zr13         O40   2.411       .  S
Zr13         O28   2.424       .  S
Zr13         O19   2.409       .  S
Zr13         O20   2.404       .  S
Zr13         O21   2.375       .  S
Zr13         O22   2.381       .  S
Zr14         O33   2.438       .  S
Zr14         O26   2.436       .  S
Zr14         O27   2.385       .  S
Zr14         O20   2.383       .  S
Zr14         O21   2.370       .  S
Zr15         O17   2.435       .  S
Zr15         O39   2.434       .  S
Zr15         O41   2.528       .  S
Zr15         O19   2.374       .  S
Zr15         O22   2.354       .  S
Zr16         O42   2.436       .  S
Zr16         O43   2.437       .  S
Zr16         O18   2.440       .  S
Zr16         O19   2.419       .  S
Zr16         O20   2.410       .  S
O17          H54   0.991       .  S
O18          H49   0.990       .  S
O18          H63   0.990       .  S
O20          H46   0.966       .  S
O21         Zr31   2.360       .  S
O22         Zr31   2.384       .  S
O22          H47   0.963       .  S
C23        C3208   1.494       .  S
C24        C3196   1.504   1_565  S
C25        C3253   1.542       .  S
O26          H62   0.990       .  S
O27          C29   1.274       .  A
O28          C29   1.285       .  A
C29        C3217   1.461       .  S
O30         Zr31   2.439   1_545  S
O30          H59   0.990       .  S
Zr31         O34   2.438       .  S
Zr31         O35   2.436       .  S
Zr31         O36   2.406       .  S
O32          C37   1.282       .  A
O33          H50   0.990       .  S
O33          H65   0.990       .  S
O34          H51   0.990   1_455  S
O35          H55   0.990   1_455  S
O35          H64   0.990       .  S
O36          C37   1.283       .  A
C37        C3241   1.472   1_455  S
O38          H57   0.991       .  S
O38          H61   0.990       .  S
O39          H53   0.990       .  S
O39          H60   0.990       .  S
O40          C44   1.280       .  A
O41          C44   1.301       .  A
O42          H52   0.990       .  S
O43          H56   0.990       .  S
C44        C3229   1.512       .  S
Zr67         O68   2.436       .  S
Zr67         O69   2.481       .  S
Zr67         O70   2.613       .  S
Zr67         O73   2.544       .  S
Zr67         O75   2.403       .  S
Zr67         O76   2.433       .  S
Zr67         O77   2.405       .  S
Zr67         O78   2.412       .  S
O68         H124   0.990       .  S
O68         H132   0.990       .  S
O69          C89   1.292       .  A
O70          C91   1.320       .  A
O71         Zr81   2.411       .  S
O71          C90   1.276       .  A
O72         Zr80   2.390       .  S
O72          C91   1.275       .  A
O73          C90   1.305       .  A
O74         Zr82   2.425       .  S
O74          C89   1.282       .  A
O75         Zr80   2.397       .  S
O75         Zr82   2.391       .  S
O76         Zr81   2.414       .  S
O76         Zr82   2.373       .  S
O76         H111   0.964       .  S
O77         Zr80   2.423       .  S
O77         Zr97   2.382       .  S
O77         H114   0.962       .  S
O78         Zr81   2.433       .  S
O78         Zr97   2.336       .  S
Zr79        O104   2.438       .  S
Zr79         O98   2.417       .  S
Zr79        O106   2.422       .  S
Zr79         O94   2.395       .  S
Zr79         O85   2.396       .  S
Zr79         O86   2.418       .  S
Zr79         O87   2.398       .  S
Zr79         O88   2.399       .  S
Zr80         O99   2.443       .  S
Zr80         O92   2.435       .  S
Zr80         O93   2.450       .  S
Zr80         O86   2.392       .  S
Zr80         O87   2.349       .  S
Zr81         O83   2.435       .  S
Zr81        O105   2.435       .  S
Zr81        O107   2.516       .  S
Zr81         O85   2.379       .  S
Zr81         O88   2.369       .  S
Zr82        O108   2.437       .  S
Zr82        O109   2.436       .  S
Zr82         O84   2.438       .  S
Zr82         O85   2.411       .  S
Zr82         O86   2.407       .  S
O83         H120   0.990       .  S
O84         H115   0.990       .  S
O84         H129   0.990       .  S
O86         H112   0.966       .  S
O87         Zr97   2.368       .  S
O88         Zr97   2.397       .  S
O88         H113   0.966       .  S
C89        C3148   1.487       .  S
C90        C3133   1.516       .  S
C91        C3256   1.546       .  S
O92         H128   0.990       .  S
O93          C95   1.285       .  A
O94          C95   1.278       .  A
C95        C3181   1.467       .  S
O96         Zr97   2.439       .  S
O96         H125   0.990       .  S
Zr97        O100   2.439       .  S
Zr97        O101   2.439       .  S
Zr97        O102   2.362       .  S
O98         C103   1.269       .  A
O99         H116   0.991       .  S
O99         H131   0.990       .  S
O100        H117   0.989       .  S
O101        H121   0.990       .  S
O101        H130   0.990       .  S
O102        C103   1.259       .  A
C103       C3169   1.449       .  S
O104        H123   0.990       .  S
O104        H127   0.990       .  S
O105        H119   0.990       .  S
O105        H126   0.990       .  S
O106        C110   1.282       .  A
O107        C110   1.299       .  A
O108        H118   0.990       .  S
O109        H122   0.990       .  S
C110       C3157   1.515       .  S
Zr133       O134   2.438       .  S
Zr133       O135   2.481       .  S
Zr133       O136   2.503       .  S
Zr133       O139   2.606       .  S
Zr133       O141   2.426       .  S
Zr133       O142   2.405       .  S
Zr133       O143   2.467       .  S
Zr133       O144   2.396       .  S
O134        H190   0.990       .  S
O134        H198   0.990       .  S
O135        C155   1.292       .  A
O136        C157   1.293       .  A
O137       Zr147   2.394       .  S
O137        C156   1.275       .  A
O138       Zr146   2.403       .  S
O138        C157   1.271       .  A
O139        C156   1.319       .  A
O140       Zr148   2.401       .  S
O140        C155   1.277       .  A
O141       Zr146   2.422       .  S
O141       Zr148   2.359       .  S
O142       Zr147   2.396       .  S
O142       Zr148   2.402       .  S
O142        H177   0.966       .  S
O143       Zr146   2.451       .  S
O143       Zr163   2.368       .  S
O143        H180   0.966       .  S
O144       Zr147   2.393       .  S
O144       Zr163   2.384       .  S
Zr145       O170   2.440       .  S
Zr145       O164   2.422       .  S
Zr145       O172   2.379       .  S
Zr145       O160   2.419       .  S
Zr145       O151   2.401       .  S
Zr145       O152   2.389       .  S
Zr145       O153   2.363       .  S
Zr145       O154   2.395       .  S
Zr146       O165   2.435       .  S
Zr146       O158   2.435       .  S
Zr146       O159   2.546       .  S
Zr146       O152   2.376       .  S
Zr146       O153   2.343       .  S
Zr147       O149   2.439       .  S
Zr147       O171   2.438       .  S
Zr147       O173   2.405       .  S
Zr147       O151   2.385       .  S
Zr147       O154   2.392       .  S
Zr148       O174   2.436       .  S
Zr148       O175   2.436       .  S
Zr148       O150   2.438       .  S
Zr148       O151   2.395       .  S
Zr148       O152   2.396       .  S
O149        H186   0.990       .  S
O150        H181   0.990       .  S
O150        H195   0.990       .  S
O152        H178   0.966       .  S
O153       Zr163   2.376       .  S
O154       Zr163   2.355       .  S
O154        H179   0.964       .  S
C155       C3085   1.482       .  S
C156       C3121   1.552       .  S
C157       C3073   1.507       .  S
O158        H194   0.990       .  S
O159        C161   1.306       .  A
O160        C161   1.280       .  A
C161       C3100   1.522       .  S
O162       Zr163   2.436       .  S
O162        H191   0.991       .  S
Zr163       O166   2.435       .  S
Zr163       O167   2.441       .  S
Zr163       O168   2.405       .  S
O164        C169   1.282       .  A
O165        H182   0.990       .  S
O165        H197   0.990       .  S
O166        H183   0.990       .  S
O167        H187   0.990       .  S
O167        H196   0.990       .  S
O168        C169   1.280       .  A
C169       C3109   1.462       .  S
O170        H189   0.990       .  S
O170        H193   0.990       .  S
O171        H185   0.988       .  S
O171        H192   0.990       .  S
O172        C176   1.278       .  A
O173        C176   1.275       .  A
O174        H184   0.990       .  S
O175        H188   0.990       .  S
C176       C3172   1.429       .  S
Zr199       O200   2.437       .  S
Zr199       O201   2.487       .  S
Zr199       O202   2.523       .  S
Zr199       O205   2.618       .  S
Zr199       O207   2.413       .  S
Zr199       O208   2.390       .  S
Zr199       O209   2.458       .  S
Zr199       O210   2.417       .  S
O200        H256   0.990       .  S
O200        H264   0.990       .  S
O201        C221   1.294       .  A
O202        C223   1.303       .  A
O203       Zr213   2.367       .  S
O203        C222   1.271       .  A
O204       Zr212   2.432       .  S
O204        C223   1.279       .  A
O205        C222   1.323       .  A
O206       Zr214   2.413       .  S
O206        C221   1.281       .  A
O207       Zr212   2.417       .  S
O207       Zr214   2.374       .  S
O208       Zr213   2.399       .  S
O208       Zr214   2.382       .  S
O208        H243   0.966       .  S
O209       Zr212   2.427       .  S
O209       Zr229   2.341       .  S
O209        H246   0.962       .  S
O210       Zr213   2.396       .  S
O210       Zr229   2.403       .  S
Zr211       O236   2.440       .  S
Zr211       O230   2.407       .  S
Zr211       O238   2.414       .  S
Zr211       O226   2.424       .  S
Zr211       O217   2.395       .  S
Zr211       O218   2.395       .  S
Zr211       O219   2.368       .  S
Zr211       O220   2.388       .  S
Zr212       O231   2.437       .  S
Zr212       O224   2.435       .  S
Zr212       O225   2.512       .  S
Zr212       O218   2.391       .  S
Zr212       O219   2.357       .  S
Zr213       O215   2.435       .  S
Zr213       O237   2.436       .  S
Zr213       O239   2.409       .  S
Zr213       O217   2.381       .  S
Zr213       O220   2.375       .  S
Zr214       O240   2.438       .  S
Zr214       O241   2.436       .  S
Zr214       O216   2.437       .  S
Zr214       O217   2.394       .  S
Zr214       O218   2.406       .  S
O215        H252   0.990       .  S
O216        H247   0.990       .  S
O216        H261   0.990       .  S
O218        H244   0.966       .  S
O219       Zr229   2.374       .  S
O220       Zr229   2.342       .  S
O220        H245   0.964       .  S
C221       C3037   1.491       .  S
C222       C3124   1.543       .  S
C223       C3025   1.506       .  S
O224        H260   0.990       .  S
O225        C227   1.300       .  A
O226        C227   1.283       .  A
C227       C3052   1.510       .  S
O228       Zr229   2.436       .  S
O228        H257   0.990       .  S
Zr229       O232   2.437       .  S
Zr229       O233   2.443       .  S
Zr229       O234   2.406       .  S
O230        C235   1.282       .  A
O231        H248   0.990       .  S
O231        H263   0.989       .  S
O232        H249   0.990       .  S
O233        H253   0.990       .  S
O233        H262   0.990       .  S
O234        C235   1.279       .  A
C235       C3220   1.471       .  S
O236        H255   0.990       .  S
O236        H259   0.990       .  S
O237        H251   0.990       .  S
O237        H258   0.990       .  S
O238        C242   1.284       .  A
O239        C242   1.280       .  A
O240        H250   0.990       .  S
O241        H254   0.990       .  S
C242       C3061   1.460       .  S
Zr265       O266   2.438   1_545  S
Zr265       O267   2.474       .  S
Zr265       O268   2.512       .  S
Zr265       O271   2.603   1_545  S
Zr265       O273   2.424       .  S
Zr265       O274   2.397       .  S
Zr265       O275   2.459       .  S
Zr265       O276   2.410       .  S
O266        H322   0.990       .  S
O266        H330   0.990       .  S
O267        C287   1.291       .  A
O268        C289   1.297       .  A
O269       Zr279   2.368       .  S
O269        C288   1.271   1_545  A
O270       Zr278   2.424       .  S
O270        C289   1.276       .  A
O271        C288   1.319       .  A
O272       Zr280   2.437       .  S
O272        C287   1.284       .  A
O273       Zr278   2.429       .  S
O273       Zr280   2.369       .  S
O274       Zr279   2.401       .  S
O274       Zr280   2.384       .  S
O274        H309   0.966       .  S
O275       Zr278   2.445       .  S
O275       Zr295   2.338       .  S
O275        H312   0.963       .  S
O276       Zr279   2.402       .  S
O276       Zr295   2.393       .  S
Zr277       O302   2.439       .  S
Zr277       O296   2.420       .  S
Zr277       O304   2.413       .  S
Zr277       O292   2.411       .  S
Zr277       O283   2.403       .  S
Zr277       O284   2.398       .  S
Zr277       O285   2.365       .  S
Zr277       O286   2.385       .  S
Zr278       O297   2.435       .  S
Zr278       O290   2.434       .  S
Zr278       O291   2.548       .  S
Zr278       O284   2.381       .  S
Zr278       O285   2.358       .  S
Zr279       O281   2.436       .  S
Zr279       O303   2.435       .  S
Zr279       O305   2.418       .  S
Zr279       O283   2.376       .  S
Zr279       O286   2.380       .  S
Zr280       O306   2.436       .  S
Zr280       O307   2.435       .  S
Zr280       O282   2.436       .  S
Zr280       O283   2.407       .  S
Zr280       O284   2.408       .  S
O281        H318   0.991       .  S
O282        H313   0.990       .  S
O282        H327   0.990       .  S
O284        H310   0.966       .  S
O285       Zr295   2.391       .  S
O286       Zr295   2.345       .  S
O286        H311   0.964       .  S
C287       C2989   1.493       .  S
C288       C3016   1.544       .  S
C289       C2980   1.516       .  S
O290        H326   0.990       .  S
O291        C293   1.306       .  A
O292        C293   1.280       .  A
C293       C3097   1.526       .  S
O294       Zr295   2.438   1_565  S
O294        H323   0.990       .  S
Zr295       O298   2.438       .  S
Zr295       O299   2.439       .  S
Zr295       O300   2.393       .  S
O296        C301   1.284       .  A
O297        H314   0.990       .  S
O297        H329   0.990       .  S
O298        H315   0.990       .  S
O299        H319   0.990       .  S
O299        H328   0.990       .  S
O300        C301   1.278       .  A
C301       C3184   1.467       .  S
O302        H321   0.990       .  S
O302        H325   0.990       .  S
O303        H317   0.990       .  S
O303        H324   0.990       .  S
O304        C308   1.282       .  A
O305        C308   1.281       .  A
O306        H316   0.990       .  S
O307        H320   0.990       .  S
C308       C3004   1.465       .  S
Zr331       O332   2.437       .  S
Zr331       O333   2.468       .  S
Zr331       O334   2.508       .  S
Zr331       O337   2.605       .  S
Zr331       O339   2.418       .  S
Zr331       O340   2.391       .  S
Zr331       O341   2.460       .  S
Zr331       O342   2.407       .  S
O332        H388   0.990       .  S
O332        H396   0.990       .  S
O333        C353   1.289       .  A
O334        C355   1.300       .  A
O335       Zr345   2.365       .  S
O335        C354   1.271       .  A
O336       Zr344   2.429       .  S
O336        C355   1.280       .  A
O337        C354   1.319       .  A
O338       Zr346   2.433       .  S
O338        C353   1.283       .  A
O339       Zr344   2.421       .  S
O339       Zr346   2.371       .  S
O340       Zr345   2.398       .  S
O340       Zr346   2.385       .  S
O340        H375   0.966       .  S
O341       Zr344   2.431       .  S
O341       Zr361   2.341       .  S
O341        H378   0.963       .  S
O342       Zr345   2.401       .  S
O342       Zr361   2.405       .  S
Zr343       O368   2.438       .  S
Zr343       O362   2.405       .  S
Zr343       O370   2.422       .  S
Zr343       O358   2.417       .  S
Zr343       O349   2.399       .  S
Zr343       O350   2.400       .  S
Zr343       O351   2.372       .  S
Zr343       O352   2.384       .  S
Zr344       O363   2.437       .  S
Zr344       O356   2.435       .  S
Zr344       O357   2.519       .  S
Zr344       O350   2.386       .  S
Zr344       O351   2.359       .  S
Zr345       O347   2.433       .  S
Zr345       O369   2.435       .  S
Zr345       O371   2.405       .  S
Zr345       O349   2.379       .  S
Zr345       O352   2.377       .  S
Zr346       O372   2.437       .  S
Zr346       O373   2.435       .  S
Zr346       O348   2.438       .  S
Zr346       O349   2.409       .  S
Zr346       O350   2.407       .  S
O347        H384   0.990       .  S
O348        H379   0.990       .  S
O348        H393   0.990       .  S
O350        H376   0.966       .  S
O351       Zr361   2.376       .  S
O352       Zr361   2.342       .  S
O352        H377   0.964       .  S
C353       C2953   1.490       .  S
C354       C3013   1.541       .  S
C355       C2944   1.512       .  S
O356        H392   0.990       .  S
O357        C359   1.301       .  A
O358        C359   1.280       .  A
C359       C3049   1.509       .  S
O360       Zr361   2.437       .  S
O360        H389   0.990       .  S
Zr361       O364   2.437       .  S
Zr361       O365   2.440       .  S
Zr361       O366   2.416       .  S
O362        C367   1.277       .  A
O363        H380   0.990       .  S
O363        H395   0.990       .  S
O364        H381   0.990       .  S
O365        H385   0.990       .  S
O365        H394   0.990       .  S
O366        C367   1.283       .  A
C367       C2965   1.471       .  S
O368        H387   0.990       .  S
O368        H391   0.991       .  S
O369        H383   0.990       .  S
O369        H390   0.990       .  S
O370        C374   1.284       .  A
O371        C374   1.277       .  A
O372        H382   0.990       .  S
O373        H386   0.990       .  S
C374       C3244   1.468       .  S
Zr397       O398   2.435       .  S
Zr397       O399   2.478       .  S
Zr397       O400   2.625       .  S
Zr397       O403   2.558       .  S
Zr397       O405   2.385       .  S
Zr397       O406   2.437       .  S
Zr397       O407   2.410       .  S
Zr397       O408   2.398       .  S
O398        H454   0.990       .  S
O398        H462   0.990       .  S
O399        C419   1.292       .  A
O400        C421   1.324       .  A
O401       Zr411   2.429       .  S
O401        C420   1.279       .  A
O402       Zr410   2.372       .  S
O402        C421   1.273       .  A
O403        C420   1.309       .  A
O404       Zr412   2.437       .  S
O404        C419   1.285       .  A
O405       Zr410   2.396       .  S
O405       Zr412   2.381       .  S
O406       Zr411   2.398       .  S
O406       Zr412   2.374       .  S
O406        H441   0.963       .  S
O407       Zr410   2.397       .  S
O407       Zr427   2.407       .  S
O407        H444   0.966       .  S
O408       Zr411   2.414       .  S
O408       Zr427   2.342       .  S
Zr409       O434   2.437       .  S
Zr409       O428   2.421   1_655  S
Zr409       O436   2.413       .  S
Zr409       O424   2.413       .  S
Zr409       O415   2.405       .  S
Zr409       O416   2.407       .  S
Zr409       O417   2.374       .  S
Zr409       O418   2.377       .  S
Zr410       O429   2.439       .  S
Zr410       O422   2.438       .  S
Zr410       O423   2.410       .  S
Zr410       O416   2.384       .  S
Zr410       O417   2.370       .  S
Zr411       O413   2.431       .  S
Zr411       O435   2.435       .  S
Zr411       O437   2.526       .  S
Zr411       O415   2.373       .  S
Zr411       O418   2.351       .  S
Zr412       O438   2.436       .  S
Zr412       O439   2.436       .  S
Zr412       O414   2.440       .  S
Zr412       O415   2.419       .  S
Zr412       O416   2.410       .  S
O413        H450   0.990   1_655  S
O414        H445   0.990       .  S
O414        H459   0.990       .  S
O416        H442   0.966       .  S
O417       Zr427   2.355       .  S
O418       Zr427   2.395       .  S
O418        H443   0.964       .  S
C419       C2917   1.487       .  S
C420       C2905   1.525       .  S
C421       C2929   1.554       .  S
O422        H458   0.990       .  S
O423        C425   1.278       .  A
O424        C425   1.284       .  A
C425       C2968   1.475       .  S
O426       Zr427   2.435   1_455  S
O426        H455   0.990   1_455  S
Zr427       O430   2.437   1_655  S
Zr427       O431   2.435   1_655  S
Zr427       O432   2.406   1_655  S
O428        C433   1.284       .  A
O429        H446   0.990       .  S
O429        H461   0.990       .  S
O430        H447   0.990       .  S
O431        H451   0.989       .  S
O431        H460   0.990       .  S
O432        C433   1.281       .  A
C433       C3064   1.466       .  S
O434        H453   0.990       .  S
O434        H457   0.990       .  S
O435        H449   0.990       .  S
O435        H456   0.990       .  S
O436        C440   1.279       .  A
O437        C440   1.301       .  A
O438        H448   0.990       .  S
O439        H452   0.990       .  S
C440       C3232   1.510   1_655  S
Zr463       O464   2.436       .  S
Zr463       O465   2.474       .  S
Zr463       O466   2.610       .  S
Zr463       O469   2.521       .  S
Zr463       O471   2.383       .  S
Zr463       O472   2.433       .  S
Zr463       O473   2.411       .  S
Zr463       O474   2.410       .  S
O464        H520   0.990       .  S
O464        H528   0.990       .  S
O465        C485   1.291       .  A
O466        C487   1.320       .  A
O467       Zr477   2.426       .  S
O467        C486   1.277       .  A
O468       Zr476   2.389       .  S
O468        C487   1.275       .  A
O469        C486   1.301       .  A
O470       Zr478   2.458       .  S
O470        C485   1.288       .  A
O471       Zr476   2.407       .  S
O471       Zr478   2.389       .  S
O472       Zr477   2.408       .  S
O472       Zr478   2.369       .  S
O472        H507   0.963       .  S
O473       Zr476   2.394       .  S
O473       Zr493   2.413       .  S
O473        H510   0.966       .  S
O474       Zr477   2.420       .  S
O474       Zr493   2.342       .  S
Zr475       O500   2.438       .  S
Zr475       O494   2.431       .  S
Zr475       O502   2.400       .  S
Zr475       O490   2.399       .  S
Zr475       O481   2.402       .  S
Zr475       O482   2.404       .  S
Zr475       O483   2.374       .  S
Zr475       O484   2.378       .  S
Zr476       O495   2.442       .  S
Zr476       O488   2.434       .  S
Zr476       O489   2.414       .  S
Zr476       O482   2.387       .  S
Zr476       O483   2.369       .  S
Zr477       O479   2.435       .  S
Zr477       O501   2.437       .  S
Zr477       O503   2.528       .  S
Zr477       O481   2.377       .  S
Zr477       O484   2.353       .  S
Zr478       O504   2.436       .  S
Zr478       O505   2.437       .  S
Zr478       O480   2.436       .  S
Zr478       O481   2.415       .  S
Zr478       O482   2.417       .  S
O479        H516   0.990       .  S
O480        H511   0.990       .  S
O480        H525   0.990       .  S
O482        H508   0.966       .  S
O483       Zr493   2.358       .  S
O484       Zr493   2.391       .  S
O484        H509   0.964       .  S
C485       C2893   1.496       .  S
C486       C2881   1.511       .  S
C487       C2932   1.552       .  S
O488        H524   0.990       .  S
O489        C491   1.281       .  A
O490        C491   1.279       .  A
C491       C3112   1.467       .  S
O492       Zr493   2.436       .  S
O492        H521   0.990       .  S
Zr493       O496   2.435       .  S
Zr493       O497   2.436       .  S
Zr493       O498   2.408       .  S
O494        C499   1.285       .  A
O495        H512   0.990       .  S
O495        H527   0.990       .  S
O496        H513   0.990       .  S
O497        H517   0.990       .  S
O497        H526   0.989       .  S
O498        C499   1.282       .  A
C499       C3001   1.470       .  S
O500        H519   0.990       .  S
O500        H523   0.990       .  S
O501        H515   0.989       .  S
O501        H522   0.990       .  S
O502        C506   1.276       .  A
O503        C506   1.301       .  A
O504        H514   0.990       .  S
O505        H518   0.990       .  S
C506       C3160   1.505       .  S
Zr529       O530   2.438       .  S
Zr529       O531   2.498       .  S
Zr529       O532   2.609       .  S
Zr529       O535   2.520       .  S
Zr529       O537   2.388       .  S
Zr529       O538   2.433       .  S
Zr529       O539   2.420       .  S
Zr529       O540   2.427       .  S
O530        H586   0.990       .  S
O530        H594   0.990       .  S
O531        C551   1.296       .  A
O532        C553   1.319       .  A
O533       Zr543   2.423       .  S
O533        C552   1.278       .  A
O534       Zr542   2.392       .  S
O534        C553   1.273       .  A
O535        C552   1.300       .  A
O536       Zr544   2.424       .  S
O536        C551   1.282       .  A
O537       Zr542   2.391       .  S
O537       Zr544   2.389       .  S
O538       Zr543   2.401       .  S
O538       Zr544   2.375       .  S
O538        H573   0.964       .  S
O539       Zr542   2.415       .  S
O539       Zr559   2.406       .  S
O539        H576   0.965       .  S
O540       Zr543   2.425       .  S
O540       Zr559   2.361       .  S
Zr541       O566   2.437       .  S
Zr541       O560   2.419       .  S
Zr541       O568   2.408       .  S
Zr541       O556   2.415       .  S
Zr541       O547   2.400       .  S
Zr541       O548   2.400       .  S
Zr541       O549   2.372       .  S
Zr541       O550   2.381       .  S
Zr542       O561   2.448       .  S
Zr542       O554   2.437       .  S
Zr542       O555   2.414       .  S
Zr542       O548   2.389       .  S
Zr542       O549   2.382       .  S
Zr543       O545   2.435       .  S
Zr543       O567   2.435       .  S
Zr543       O569   2.528       .  S
Zr543       O547   2.381       .  S
Zr543       O550   2.337       .  S
Zr544       O570   2.436       .  S
Zr544       O571   2.436       .  S
Zr544       O546   2.438       .  S
Zr544       O547   2.410       .  S
Zr544       O548   2.404       .  S
O545        H582   0.990       .  S
O546        H577   0.990       .  S
O546        H591   0.990       .  S
O548        H574   0.966       .  S
O549       Zr559   2.342       .  S
O550       Zr559   2.388       .  S
O550        H575   0.963       .  S
C551       C2821   1.489       .  S
C552       C2809   1.513       .  S
C553       C2869   1.554       .  S
O554        H590   0.990       .  S
O555        C557   1.280       .  A
O556        C557   1.283       .  A
C557       C2845   1.459       .  S
O558       Zr559   2.440       .  S
O558        H587   0.990       .  S
Zr559       O562   2.445       .  S
Zr559       O563   2.435       .  S
Zr559       O564   2.421       .  S
O560        C565   1.282       .  A
O561        H578   0.990       .  S
O561        H593   0.991       .  S
O562        H579   0.990       .  S
O563        H583   0.990       .  S
O563        H592   0.991       .  S
O564        C565   1.282       .  A
C565       C2857   1.464       .  S
O566        H585   0.990       .  S
O566        H589   0.990       .  S
O567        H581   0.990       .  S
O567        H588   0.990       .  S
O568        C572   1.279       .  A
O569        C572   1.302       .  A
O570        H580   0.990       .  S
O571        H584   0.990       .  S
C572       C2833   1.510       .  S
Zr595       O596   2.435       .  S
Zr595       O597   2.481       .  S
Zr595       O598   2.605       .  S
Zr595       O601   2.545       .  S
Zr595       O603   2.384       .  S
Zr595       O604   2.434       .  S
Zr595       O605   2.416       .  S
Zr595       O606   2.399       .  S
O596        H652   0.990       .  S
O596        H660   0.990       .  S
O597        C617   1.293       .  A
O598        C619   1.319       .  A
O599       Zr609   2.430       .  S
O599        C618   1.280       .  A
O600       Zr608   2.383       .  S
O600        C619   1.275       .  A
O601        C618   1.306       .  A
O602       Zr610   2.441       .  S
O602        C617   1.285       .  A
O603       Zr608   2.395       .  S
O603       Zr610   2.382       .  S
O604       Zr609   2.402       .  S
O604       Zr610   2.379       .  S
O604        H639   0.964       .  S
O605       Zr608   2.393       .  S
O605       Zr625   2.411       .  S
O605        H642   0.966       .  S
O606       Zr609   2.415       .  S
O606       Zr625   2.341       .  S
Zr607       O632   2.439       .  S
Zr607       O626   2.422       .  S
Zr607       O634   2.413       .  S
Zr607       O622   2.400       .  S
Zr607       O613   2.402       .  S
Zr607       O614   2.408       .  S
Zr607       O615   2.385       .  S
Zr607       O616   2.375       .  S
Zr608       O627   2.441       .  S
Zr608       O620   2.436       .  S
Zr608       O621   2.414       .  S
Zr608       O614   2.386       .  S
Zr608       O615   2.375       .  S
Zr609       O611   2.435       .  S
Zr609       O633   2.435       .  S
Zr609       O635   2.531       .  S
Zr609       O613   2.376       .  S
Zr609       O616   2.351       .  S
Zr610       O636   2.436       .  S
Zr610       O637   2.437       .  S
Zr610       O612   2.438       .  S
Zr610       O613   2.418       .  S
Zr610       O614   2.406       .  S
O611        H648   0.990   1_554  S
O612        H643   0.990       .  S
O612        H657   0.990       .  S
O614        H640   0.966       .  S
O615       Zr625   2.358       .  S
O616       Zr625   2.386       .  S
O616        H641   0.964       .  S
C617       C2761   1.491       .  S
C618       C2752   1.519       .  S
C619       C2872   1.547       .  S
O620        H656   0.990       .  S
O621        C623   1.280       .  A
O622        C623   1.279       .  A
C623       C2797   1.466       .  S
O624       Zr625   2.435       .  S
O624        H653   0.990       .  S
Zr625       O628   2.434       .  S
Zr625       O629   2.436       .  S
Zr625       O630   2.407       .  S
O626        C631   1.283       .  A
O627        H644   0.990       .  S
O627        H659   0.991       .  S
O628        H645   0.990       .  S
O629        H649   0.990       .  S
O629        H658   0.990       .  S
O630        C631   1.282       .  A
C631       C2785   1.466       .  S
O632        H651   0.990       .  S
O632        H655   0.990       .  S
O633        H647   0.990       .  S
O633        H654   0.990   1_554  S
O634        C638   1.280       .  A
O635        C638   1.302       .  A
O636        H646   0.990       .  S
O637        H650   0.990       .  S
C638       C2773   1.512       .  S
Zr661       O662   2.436   1_565  S
Zr661       O663   2.486       .  S
Zr661       O664   2.502   1_565  S
Zr661       O667   2.590   1_565  S
Zr661       O669   2.414       .  S
Zr661       O670   2.394       .  S
Zr661       O671   2.458       .  S
Zr661       O672   2.416       .  S
O662        H718   0.990       .  S
O662        H726   0.990       .  S
O663        C683   1.293       .  A
O664        C685   1.299   1_545  A
O665       Zr675   2.389       .  S
O665        C684   1.274   1_565  A
O666       Zr674   2.433       .  S
O666        C685   1.280       .  A
O667        C684   1.317       .  A
O668       Zr676   2.431       .  S
O668        C683   1.283       .  A
O669       Zr674   2.420       .  S
O669       Zr676   2.372       .  S
O670       Zr675   2.402       .  S
O670       Zr676   2.388       .  S
O670        H705   0.966       .  S
O671       Zr674   2.431       .  S
O671       Zr691   2.340       .  S
O671        H708   0.962       .  S
O672       Zr675   2.401       .  S
O672       Zr691   2.404       .  S
Zr673       O698   2.439       .  S
Zr673       O692   2.413   1_655  S
Zr673       O700   2.417       .  S
Zr673       O688   2.412       .  S
Zr673       O679   2.403       .  S
Zr673       O680   2.397       .  S
Zr673       O681   2.367       .  S
Zr673       O682   2.388       .  S
Zr674       O693   2.437   1_655  S
Zr674       O686   2.434       .  S
Zr674       O687   2.522       .  S
Zr674       O680   2.385       .  S
Zr674       O681   2.359       .  S
Zr675       O677   2.439       .  S
Zr675       O699   2.435       .  S
Zr675       O701   2.416       .  S
Zr675       O679   2.386       .  S
Zr675       O682   2.388       .  S
Zr676       O702   2.436       .  S
Zr676       O703   2.438       .  S
Zr676       O678   2.437       .  S
Zr676       O679   2.409       .  S
Zr676       O680   2.405       .  S
O677        H714   0.991       .  S
O678        H709   0.990       .  S
O678        H723   0.990       .  S
O680        H706   0.966       .  S
O681       Zr691   2.378       .  S
O682       Zr691   2.339       .  S
O682        H707   0.962       .  S
C683       C2701   1.502       .  S
C684       C2725   1.544       .  S
C685       C2692   1.499   1_565  S
O686        H722   0.990   1_554  S
O687        C689   1.301       .  A
O688        C689   1.281       .  A
C689       C2737   1.510   1_655  S
O690       Zr691   2.435   1_445  S
O690        H719   0.990   1_455  S
Zr691       O694   2.436   1_655  S
Zr691       O695   2.442   1_655  S
Zr691       O696   2.406   1_655  S
O692        C697   1.281       .  A
O693        H710   0.990       .  S
O693        H725   0.989       .  S
O694        H711   0.990       .  S
O695        H715   0.990       .  S
O695        H724   0.990   1_455  S
O696        C697   1.280       .  A
C697       C2713   1.470       .  S
O698        H717   0.990       .  S
O698        H721   0.990       .  S
O699        H713   0.990       .  S
O699        H720   0.990       .  S
O700        C704   1.283       .  A
O701        C704   1.280       .  A
O702        H712   0.990       .  S
O703        H716   0.990       .  S
C704       C2860   1.460       .  S
Zr727       O728   2.438       .  S
Zr727       O729   2.482       .  S
Zr727       O730   2.512       .  S
Zr727       O733   2.594       .  S
Zr727       O735   2.414       .  S
Zr727       O736   2.395       .  S
Zr727       O737   2.462       .  S
Zr727       O738   2.419       .  S
O728        H784   0.990       .  S
O728        H792   0.990       .  S
O729        C749   1.293       .  A
O730        C751   1.299       .  A
O731       Zr741   2.400       .  S
O731        C750   1.274       .  A
O732       Zr740   2.427       .  S
O732        C751   1.277       .  A
O733        C750   1.314       .  A
O734       Zr742   2.411       .  S
O734        C749   1.279       .  A
O735       Zr740   2.422       .  S
O735       Zr742   2.376       .  S
O736       Zr741   2.402       .  S
O736       Zr742   2.383       .  S
O736        H771   0.966       .  S
O737       Zr740   2.435       .  S
O737       Zr757   2.346       .  S
O737        H774   0.962       .  S
O738       Zr741   2.401       .  S
O738       Zr757   2.399       .  S
Zr739       O764   2.438       .  S
Zr739       O758   2.399       .  S
Zr739       O766   2.398       .  S
Zr739       O754   2.429       .  S
Zr739       O745   2.398       .  S
Zr739       O746   2.389       .  S
Zr739       O747   2.372       .  S
Zr739       O748   2.391       .  S
Zr740       O759   2.436       .  S
Zr740       O752   2.434       .  S
Zr740       O753   2.532       .  S
Zr740       O746   2.387       .  S
Zr740       O747   2.358       .  S
Zr741       O743   2.435       .  S
Zr741       O765   2.434       .  S
Zr741       O767   2.425       .  S
Zr741       O745   2.387       .  S
Zr741       O748   2.385       .  S
Zr742       O768   2.438       .  S
Zr742       O769   2.436       .  S
Zr742       O744   2.440       .  S
Zr742       O745   2.394       .  S
Zr742       O746   2.410       .  S
O743        H780   0.991       .  S
O744        H775   0.990       .  S
O744        H789   0.990       .  S
O746        H772   0.966       .  S
O747       Zr757   2.383       .  S
O748       Zr757   2.338       .  S
O748        H773   0.964       .  S
C749       C2653   1.487       .  S
C750       C2728   1.555       .  S
C751       C2641   1.506       .  S
O752        H788   0.990       .  S
O753        C755   1.303       .  A
O754        C755   1.283       .  A
C755       C2665   1.523       .  S
O756       Zr757   2.436       .  S
O756        H785   0.990       .  S
Zr757       O760   2.436       .  S
Zr757       O761   2.442       .  S
Zr757       O762   2.408       .  S
O758        C763   1.279       .  A
O759        H776   0.990       .  S
O759        H791   0.990       .  S
O760        H777   0.990       .  S
O761        H781   0.990       .  S
O761        H790   0.990       .  S
O762        C763   1.281       .  A
C763       C2800   1.464       .  S
O764        H783   0.990       .  S
O764        H787   0.990       .  S
O765        H779   0.990       .  S
O765        H786   0.990       .  S
O766        C770   1.281       .  A
O767        C770   1.281       .  A
O768        H778   0.990       .  S
O769        H782   0.990       .  S
C770       C2680   1.460       .  S
Zr793       O794   2.437       .  S
Zr793       O795   2.489       .  S
Zr793       O796   2.606       .  S
Zr793       O799   2.521       .  S
Zr793       O801   2.390       .  S
Zr793       O802   2.433       .  S
Zr793       O803   2.412       .  S
Zr793       O804   2.414       .  S
O794        H850   0.990       .  S
O794        H858   0.990       .  S
O795        C815   1.294       .  A
O796        C817   1.318       .  A
O797       Zr807   2.421       .  S
O797        C816   1.277       .  A
O798       Zr806   2.381       .  S
O798        C817   1.272       .  A
O799        C816   1.301       .  A
O800       Zr808   2.436       .  S
O800        C815   1.285       .  A
O801       Zr806   2.394       .  S
O801       Zr808   2.393       .  S
O802       Zr807   2.403       .  S
O802       Zr808   2.373       .  S
O802        H837   0.963       .  S
O803       Zr806   2.408       .  S
O803       Zr823   2.406       .  S
O803        H840   0.964       .  S
O804       Zr807   2.421       .  S
O804       Zr823   2.351       .  S
Zr805       O830   2.437       .  S
Zr805       O824   2.420       .  S
Zr805       O832   2.405       .  S
Zr805       O820   2.418       .  S
Zr805       O811   2.401       .  S
Zr805       O812   2.412       .  S
Zr805       O813   2.380       .  S
Zr805       O814   2.382       .  S
Zr806       O825   2.446       .  S
Zr806       O818   2.436       .  S
Zr806       O819   2.412       .  S
Zr806       O812   2.387       .  S
Zr806       O813   2.378       .  S
Zr807       O809   2.437       .  S
Zr807       O831   2.434       .  S
Zr807       O833   2.525       .  S
Zr807       O811   2.376       .  S
Zr807       O814   2.345       .  S
Zr808       O834   2.436       .  S
Zr808       O835   2.438       .  S
Zr808       O810   2.440       .  S
Zr808       O811   2.407       .  S
Zr808       O812   2.415       .  S
O809        H846   0.990       .  S
O810        H841   0.990       .  S
O810        H855   0.989       .  S
O812        H838   0.966       .  S
O813       Zr823   2.355       .  S
O814       Zr823   2.385       .  S
O814        H839   0.964       .  S
C815       C2605   1.492       .  S
C816       C2593   1.499       .  S
C817       C2629   1.546       .  S
O818        H854   0.990       .  S
O819        C821   1.277       .  A
O820        C821   1.282       .  A
C821       C2716   1.461       .  S
O822       Zr823   2.437       .  S
O822        H851   0.990       .  S
Zr823       O826   2.435       .  S
Zr823       O827   2.436       .  S
Zr823       O828   2.406       .  S
O824        C829   1.280       .  A
O825        H842   0.991       .  S
O825        H857   0.990       .  S
O826        H843   0.990       .  S
O827        H847   0.990       .  S
O827        H856   0.990       .  S
O828        C829   1.282       .  A
C829       C2620   1.470       .  S
O830        H849   0.990       .  S
O830        H853   0.990       .  S
O831        H845   0.990       .  S
O831        H852   0.990       .  S
O832        C836   1.279       .  A
O833        C836   1.302       .  A
O834        H844   0.990       .  S
O835        H848   0.990       .  S
C836       C2836   1.508       .  S
Zr859       O860   2.437   1_545  S
Zr859       O861   2.470       .  S
Zr859       O862   2.613   1_545  S
Zr859       O865   2.526       .  S
Zr859       O867   2.383       .  S
Zr859       O868   2.438       .  S
Zr859       O869   2.404       .  S
Zr859       O870   2.409       .  S
O860        H916   0.990       .  S
O860        H924   0.990       .  S
O861        C881   1.290       .  A
O862        C883   1.321   1_565  A
O863       Zr873   2.431       .  S
O863        C882   1.280       .  A
O864       Zr872   2.366       .  S
O864        C883   1.271       .  A
O865        C882   1.302       .  A
O866       Zr874   2.445       .  S
O866        C881   1.286       .  A
O867       Zr872   2.398       .  S
O867       Zr874   2.385       .  S
O868       Zr873   2.411       .  S
O868       Zr874   2.374       .  S
O868        H903   0.964       .  S
O869       Zr872   2.394       .  S
O869       Zr889   2.405       .  S
O869        H906   0.966       .  S
O870       Zr873   2.419       .  S
O870       Zr889   2.346       .  S
Zr871       O896   2.438       .  S
Zr871       O890   2.430       .  S
Zr871       O898   2.405       .  S
Zr871       O886   2.424       .  S
Zr871       O877   2.411       .  S
Zr871       O878   2.410       .  S
Zr871       O879   2.370       .  S
Zr871       O880   2.378       .  S
Zr872       O891   2.439       .  S
Zr872       O884   2.436       .  S
Zr872       O885   2.403       .  S
Zr872       O878   2.387       .  S
Zr872       O879   2.367       .  S
Zr873       O875   2.437       .  S
Zr873       O897   2.435       .  S
Zr873       O899   2.540       .  S
Zr873       O877   2.377       .  S
Zr873       O880   2.348       .  S
Zr874       O900   2.435       .  S
Zr874       O901   2.435       .  S
Zr874       O876   2.439       .  S
Zr874       O877   2.416       .  S
Zr874       O878   2.412       .  S
O875        H912   0.990       .  S
O876        H907   0.990       .  S
O876        H921   0.990       .  S
O878        H904   0.966       .  S
O879       Zr889   2.349       .  S
O880       Zr889   2.387       .  S
O880        H905   0.964       .  S
C881       C2569   1.490       .  S
C882       C2560   1.514       .  S
C883       C2632   1.545   1_545  S
O884        H920   0.990       .  S
O885        C887   1.278       .  A
O886        C887   1.284       .  A
C887       C2581   1.467       .  S
O888       Zr889   2.435       .  S
O888        H917   0.990   1_545  S
Zr889       O892   2.435       .  S
Zr889       O893   2.436       .  S
Zr889       O894   2.394       .  S
O890        C895   1.283       .  A
O891        H908   0.990       .  S
O891        H923   0.991       .  S
O892        H909   0.990       .  S
O893        H913   0.990       .  S
O893        H922   0.990       .  S
O894        C895   1.281       .  A
C895       C2677   1.473       .  S
O896        H915   0.991       .  S
O896        H919   0.990       .  S
O897        H911   0.990   1_554  S
O897        H918   0.990   1_554  S
O898        C902   1.278       .  A
O899        C902   1.304       .  A
O900        H910   0.990       .  S
O901        H914   0.990       .  S
C902       C2776   1.513       .  S
Zr925       O926   2.437       .  S
Zr925       O927   2.481       .  S
Zr925       O928   2.501       .  S
Zr925       O931   2.594       .  S
Zr925       O933   2.416       .  S
Zr925       O934   2.391       .  S
Zr925       O935   2.459       .  S
Zr925       O936   2.413       .  S
O926        H982   0.990       .  S
O926        H990   0.990       .  S
O927        C947   1.292       .  A
O928        C949   1.300       .  A
O929       Zr939   2.380       .  S
O929        C948   1.271       .  A
O930       Zr938   2.443       .  S
O930        C949   1.283       .  A
O931        C948   1.315       .  A
O932       Zr940   2.440       .  S
O932        C947   1.284       .  A
O933       Zr938   2.426       .  S
O933       Zr940   2.369       .  S
O934       Zr939   2.404       .  S
O934       Zr940   2.385       .  S
O934        H969   0.966       .  S
O935       Zr938   2.430       .  S
O935       Zr955   2.334       .  S
O935        H972   0.963       .  S
O936       Zr939   2.402       .  S
O936       Zr955   2.400       .  S
Zr937       O962   2.437       .  S
Zr937       O956   2.412       .  S
Zr937       O964   2.422       .  S
Zr937       O952   2.413       .  S
Zr937       O943   2.399       .  S
Zr937       O944   2.401       .  S
Zr937       O945   2.372       .  S
Zr937       O946   2.385       .  S
Zr938       O957   2.438       .  S
Zr938       O950   2.435       .  S
Zr938       O951   2.546       .  S
Zr938       O944   2.383       .  S
Zr938       O945   2.356       .  S
Zr939       O941   2.438       .  S
Zr939       O963   2.435       .  S
Zr939       O965   2.421       .  S
Zr939       O943   2.380       .  S
Zr939       O946   2.383       .  S
Zr940       O966   2.437       .  S
Zr940       O967   2.434       .  S
Zr940       O942   2.441       .  S
Zr940       O943   2.416       .  S
Zr940       O944   2.415       .  S
O941        H978   0.990       .  S
O942        H973   0.990       .  S
O942        H987   0.989       .  S
O944        H970   0.966       .  S
O945       Zr955   2.377       .  S
O946       Zr955   2.342       .  S
O946        H971   0.963       .  S
C947       C2533   1.501       .  S
C948       C2545   1.550       .  S
C949       C2521   1.497       .  S
O950        H986   0.990       .  S
O951        C953   1.307       .  A
O952        C953   1.281       .  A
C953       C2668   1.523       .  S
O954       Zr955   2.435       .  S
O954        H983   0.990       .  S
Zr955       O958   2.437       .  S
Zr955       O959   2.438       .  S
Zr955       O960   2.409       .  S
O956        C961   1.281       .  A
O957        H974   0.990       .  S
O957        H989   0.989       .  S
O958        H975   0.990       .  S
O959        H979   0.990       .  S
O959        H988   0.990       .  S
O960        C961   1.281       .  A
C961       C2584   1.469       .  S
O962        H981   0.990       .  S
O962        H985   0.990       .  S
O963        H977   0.990       .  S
O963        H984   0.990       .  S
O964        C968   1.283       .  A
O965        C968   1.280       .  A
O966        H976   0.990       .  S
O967        H980   0.990       .  S
C968       C2788   1.464       .  S
Zr991       O992   2.437       .  S
Zr991       O993   2.492       .  S
Zr991       O994   2.498       .  S
Zr991       O997   2.594       .  S
Zr991       O999   2.427       .  S
Zr991      O1000   2.402       .  S
Zr991      O1001   2.465       .  S
Zr991      O1002   2.429       .  S
O992       H1048   0.990       .  S
O992       H1056   0.990       .  S
O993       C1013   1.294       .  A
O994       C1015   1.298       .  A
O995      Zr1005   2.363       .  S
O995       C1014   1.271       .  A
O996      Zr1004   2.436       .  S
O996       C1015   1.280       .  A
O997       C1014   1.317       .  A
O998      Zr1006   2.428       .  S
O998       C1013   1.283       .  A
O999      Zr1004   2.438       .  S
O999      Zr1006   2.360       .  S
O1000     Zr1005   2.407       .  S
O1000     Zr1006   2.388       .  S
O1000      H1035   0.966       .  S
O1001     Zr1004   2.426       .  S
O1001     Zr1021   2.349       .  S
O1001      H1038   0.959       .  S
O1002     Zr1005   2.376       .  S
O1002     Zr1021   2.421       .  S
Zr1003     O1028   2.436       .  S
Zr1003     O1022   2.389       .  S
Zr1003     O1030   2.412       .  S
Zr1003     O1018   2.411       .  S
Zr1003     O1009   2.348       .  S
Zr1003     O1010   2.398       .  S
Zr1003     O1011   2.353       .  S
Zr1003     O1012   2.391       .  S
Zr1004     O1023   2.436       .  S
Zr1004     O1016   2.434       .  S
Zr1004     O1017   2.521       .  S
Zr1004     O1010   2.412       .  S
Zr1004     O1011   2.377       .  S
Zr1005     O1007   2.435       .  S
Zr1005     O1029   2.438       .  S
Zr1005     O1031   2.407       .  S
Zr1005     O1009   2.344       .  S
Zr1005     O1012   2.388       .  S
Zr1006     O1032   2.437       .  S
Zr1006     O1033   2.435       .  S
Zr1006     O1008   2.436       .  S
Zr1006     O1009   2.361       .  S
Zr1006     O1010   2.414       .  S
O1007      H1044   0.990       .  S
O1008      H1039   0.990       .  S
O1008      H1053   0.990       .  S
O1010      H1036   0.966       .  S
O1011     Zr1021   2.393       .  S
O1012     Zr1021   2.362       .  S
O1012      H1037   0.965       .  S
C1013      C2509   1.496       .  S
C1014      C2548   1.534       .  S
C1015      C2500   1.501       .  S
O1016      H1052   0.990   1_554  S
O1017      C1019   1.301       .  A
O1018      C1019   1.280       .  A
C1019      C2740   1.508       .  S
O1020     Zr1021   2.436       .  S
O1020      H1049   0.990       .  S
Zr1021     O1024   2.435       .  S
Zr1021     O1025   2.438       .  S
Zr1021     O1026   2.414       .  S
O1022      C1027   1.277       .  A
O1023      H1040   0.989       .  S
O1023      H1055   0.990       .  S
O1024      H1041   0.990       .  S
O1025      H1045   0.990       .  S
O1025      H1054   0.990       .  S
O1026      C1027   1.281       .  A
C1027      C2848   1.461   1_455  S
O1028      H1047   0.990       .  S
O1028      H1051   0.991       .  S
O1029      H1043   0.990       .  S
O1029      H1050   0.990       .  S
O1030      C1034   1.281       .  A
O1031      C1034   1.277       .  A
O1032      H1042   0.990       .  S
O1033      H1046   0.990       .  S
C1034      C2617   1.462       .  S
Zr1057     O1058   2.436       .  S
Zr1057     O1059   2.474       .  S
Zr1057     O1060   2.603       .  S
Zr1057     O1063   2.530       .  S
Zr1057     O1065   2.380       .  S
Zr1057     O1066   2.433       .  S
Zr1057     O1067   2.412       .  S
Zr1057     O1068   2.409       .  S
O1058      H1114   0.990       .  S
O1058      H1122   0.990       .  S
O1059      C1079   1.291       .  A
O1060      C1081   1.319       .  A
O1061     Zr1071   2.430       .  S
O1061      C1080   1.281       .  A
O1062     Zr1070   2.372       .  S
O1062      C1081   1.272       .  A
O1063      C1080   1.305       .  A
O1064     Zr1072   2.439       .  S
O1064      C1079   1.286       .  A
O1065     Zr1070   2.391       .  S
O1065     Zr1072   2.379       .  S
O1066     Zr1071   2.404       .  S
O1066     Zr1072   2.380       .  S
O1066      H1101   0.964       .  S
O1067     Zr1070   2.395       .  S
O1067     Zr1087   2.411       .  S
O1067      H1104   0.966       .  S
O1068     Zr1071   2.418       .  S
O1068     Zr1087   2.357       .  S
Zr1069     O1094   2.438       .  S
Zr1069     O1088   2.410       .  S
Zr1069     O1096   2.413       .  S
Zr1069     O1084   2.422       .  S
Zr1069     O1075   2.404       .  S
Zr1069     O1076   2.408       .  S
Zr1069     O1077   2.380       .  S
Zr1069     O1078   2.383       .  S
Zr1070     O1089   2.439       .  S
Zr1070     O1082   2.436       .  S
Zr1070     O1083   2.401       .  S
Zr1070     O1076   2.386       .  S
Zr1070     O1077   2.377       .  S
Zr1071     O1073   2.435       .  S
Zr1071     O1095   2.434       .  S
Zr1071     O1097   2.544       .  S
Zr1071     O1075   2.373       .  S
Zr1071     O1078   2.348       .  S
Zr1072     O1098   2.436       .  S
Zr1072     O1099   2.437       .  S
Zr1072     O1074   2.438       .  S
Zr1072     O1075   2.417       .  S
Zr1072     O1076   2.411       .  S
O1073      H1110   0.991       .  S
O1074      H1105   0.990       .  S
O1074      H1119   0.990       .  S
O1076      H1102   0.966       .  S
O1077     Zr1087   2.360       .  S
O1078     Zr1087   2.382       .  S
O1078      H1103   0.963       .  S
C1079      C3145   1.493       .  S
C1080      C3028   1.503       .  S
C1081      C2485   1.545       .  S
O1082      H1118   0.990       .  S
O1083      C1085   1.276       .  A
O1084      C1085   1.283       .  A
C1085      C2449   1.468       .  S
O1086     Zr1087   2.436       .  S
O1086      H1115   0.990       .  S
Zr1087     O1090   2.437       .  S
Zr1087     O1091   2.436       .  S
Zr1087     O1092   2.421       .  S
O1088      C1093   1.281       .  A
O1089      H1106   0.990       .  S
O1089      H1121   0.990       .  S
O1090      H1107   0.990       .  S
O1091      H1111   0.990       .  S
O1091      H1120   0.990       .  S
O1092      C1093   1.284       .  A
C1093      C2473   1.464       .  S
O1094      H1113   0.990       .  S
O1094      H1117   0.990       .  S
O1095      H1109   0.990       .  S
O1095      H1116   0.990       .  S
O1096      C1100   1.280       .  A
O1097      C1100   1.304       .  A
O1098      H1108   0.990       .  S
O1099      H1112   0.990       .  S
C1100      C2461   1.517       .  S
Zr1123     O1124   2.436   1_545  S
Zr1123     O1125   2.477       .  S
Zr1123     O1126   2.601   1_545  S
Zr1123     O1129   2.521       .  S
Zr1123     O1131   2.387       .  S
Zr1123     O1132   2.434       .  S
Zr1123     O1133   2.410       .  S
Zr1123     O1134   2.406       .  S
O1124      H1180   0.990       .  S
O1124      H1188   0.990       .  S
O1125      C1145   1.292       .  A
O1126      C1147   1.318       .  A
O1127     Zr1137   2.422       .  S
O1127      C1146   1.276       .  A
O1128     Zr1136   2.379       .  S
O1128      C1147   1.274   1_545  A
O1129      C1146   1.302       .  A
O1130     Zr1138   2.443       .  S
O1130      C1145   1.285       .  A
O1131     Zr1136   2.402       .  S
O1131     Zr1138   2.383       .  S
O1132     Zr1137   2.412       .  S
O1132     Zr1138   2.377       .  S
O1132      H1167   0.964       .  S
O1133     Zr1136   2.393       .  S
O1133     Zr1153   2.402       .  S
O1133      H1170   0.965       .  S
O1134     Zr1137   2.412       .  S
O1134     Zr1153   2.345       .  S
Zr1135     O1160   2.439       .  S
Zr1135     O1154   2.428       .  S
Zr1135     O1162   2.426       .  S
Zr1135     O1150   2.414       .  S
Zr1135     O1141   2.404       .  S
Zr1135     O1142   2.412       .  S
Zr1135     O1143   2.383       .  S
Zr1135     O1144   2.374       .  S
Zr1136     O1155   2.439       .  S
Zr1136     O1148   2.435       .  S
Zr1136     O1149   2.414       .  S
Zr1136     O1142   2.388       .  S
Zr1136     O1143   2.374       .  S
Zr1137     O1139   2.434       .  S
Zr1137     O1161   2.435       .  S
Zr1137     O1163   2.519       .  S
Zr1137     O1141   2.381       .  S
Zr1137     O1144   2.352       .  S
Zr1138     O1164   2.436       .  S
Zr1138     O1165   2.436       .  S
Zr1138     O1140   2.438       .  S
Zr1138     O1141   2.419       .  S
Zr1138     O1142   2.411       .  S
O1139      H1176   0.990       .  S
O1140      H1171   0.990       .  S
O1140      H1185   0.989       .  S
O1142      H1168   0.966       .  S
O1143     Zr1153   2.358       .  S
O1144     Zr1153   2.391       .  S
O1144      H1169   0.965       .  S
C1145      C2572   1.491       .  S
C1146      C2689   1.503       .  S
C1147      C2488   1.545       .  S
O1148      H1184   0.990       .  S
O1149      C1151   1.279       .  A
O1150      C1151   1.283       .  A
C1151      C2440   1.475       .  S
O1152     Zr1153   2.438   1_565  S
O1152      H1181   0.989       .  S
Zr1153     O1156   2.437       .  S
Zr1153     O1157   2.437       .  S
Zr1153     O1158   2.384       .  S
O1154      C1159   1.283       .  A
O1155      H1172   0.989       .  S
O1155      H1187   0.990       .  S
O1156      H1173   0.990       .  S
O1157      H1177   0.990   1_455  S
O1157      H1186   0.990       .  S
O1158      C1159   1.277       .  A
C1159      C2425   1.474   1_455  S
O1160      H1179   0.990       .  S
O1160      H1183   0.990       .  S
O1161      H1175   0.990   1_556  S
O1161      H1182   0.989       .  S
O1162      C1166   1.283       .  A
O1163      C1166   1.300       .  A
O1164      H1174   0.990       .  S
O1165      H1178   0.990       .  S
C1166      C2416   1.511       .  S
Zr1189     O1190   2.436       .  S
Zr1189     O1191   2.483       .  S
Zr1189     O1192   2.628       .  S
Zr1189     O1195   2.535       .  S
Zr1189     O1197   2.381       .  S
Zr1189     O1198   2.435       .  S
Zr1189     O1199   2.406       .  S
Zr1189     O1200   2.404       .  S
O1190      H1246   0.990       .  S
O1190      H1254   0.990       .  S
O1191      C1211   1.293       .  A
O1192      C1213   1.324       .  A
O1193     Zr1203   2.432       .  S
O1193      C1212   1.282       .  A
O1194     Zr1202   2.361       .  S
O1194      C1213   1.270       .  A
O1195      C1212   1.306       .  A
O1196     Zr1204   2.447       .  S
O1196      C1211   1.286       .  A
O1197     Zr1202   2.398       .  S
O1197     Zr1204   2.385       .  S
O1198     Zr1203   2.402       .  S
O1198     Zr1204   2.375       .  S
O1198      H1233   0.962       .  S
O1199     Zr1202   2.396       .  S
O1199     Zr1219   2.406       .  S
O1199      H1236   0.966       .  S
O1200     Zr1203   2.414       .  S
O1200     Zr1219   2.342       .  S
Zr1201     O1226   2.437       .  S
Zr1201     O1220   2.423       .  S
Zr1201     O1228   2.418       .  S
Zr1201     O1216   2.421       .  S
Zr1201     O1207   2.406       .  S
Zr1201     O1208   2.407       .  S
Zr1201     O1209   2.378       .  S
Zr1201     O1210   2.379       .  S
Zr1202     O1221   2.439       .  S
Zr1202     O1214   2.435       .  S
Zr1202     O1215   2.398       .  S
Zr1202     O1208   2.384       .  S
Zr1202     O1209   2.375       .  S
Zr1203     O1205   2.434       .  S
Zr1203     O1227   2.434       .  S
Zr1203     O1229   2.542       .  S
Zr1203     O1207   2.377       .  S
Zr1203     O1210   2.342       .  S
Zr1204     O1230   2.435       .  S
Zr1204     O1231   2.435       .  S
Zr1204     O1206   2.441       .  S
Zr1204     O1207   2.420       .  S
Zr1204     O1208   2.412       .  S
O1205      H1242   0.990       .  S
O1206      H1237   0.990       .  S
O1206      H1251   0.989       .  S
O1208      H1234   0.966       .  S
O1209     Zr1219   2.356       .  S
O1210     Zr1219   2.388       .  S
O1210      H1235   0.964       .  S
C1211      C2896   1.493       .  S
C1212      C2941   1.515       .  S
C1213      C2401   1.551       .  S
O1214      H1250   0.990       .  S
O1215      C1217   1.276       .  A
O1216      C1217   1.284       .  A
C1217      C2377   1.464       .  S
O1218     Zr1219   2.436       .  S
O1218      H1247   0.990       .  S
Zr1219     O1222   2.434       .  S
Zr1219     O1223   2.437       .  S
Zr1219     O1224   2.401       .  S
O1220      C1225   1.282       .  A
O1221      H1238   0.990       .  S
O1221      H1253   0.990       .  S
O1222      H1239   0.990       .  S
O1223      H1243   0.990       .  S
O1223      H1252   0.990       .  S
O1224      C1225   1.283       .  A
C1225      C2392   1.470       .  S
O1226      H1245   0.990       .  S
O1226      H1249   0.990       .  S
O1227      H1241   0.990       .  S
O1227      H1248   0.990       .  S
O1228      C1232   1.281       .  A
O1229      C1232   1.304       .  A
O1230      H1240   0.990       .  S
O1231      H1244   0.990       .  S
C1232      C2464   1.520       .  S
Zr1255     O1256   2.436       .  S
Zr1255     O1257   2.462       .  S
Zr1255     O1258   2.606       .  S
Zr1255     O1261   2.523       .  S
Zr1255     O1263   2.379       .  S
Zr1255     O1264   2.436       .  S
Zr1255     O1265   2.406       .  S
Zr1255     O1266   2.401       .  S
O1256      H1312   0.990       .  S
O1256      H1320   0.990       .  S
O1257      C1277   1.289       .  A
O1258      C1279   1.319       .  A
O1259     Zr1269   2.433       .  S
O1259      C1278   1.282       .  A
O1260     Zr1268   2.373       .  S
O1260      C1279   1.272       .  A
O1261      C1278   1.304       .  A
O1262     Zr1270   2.455       .  S
O1262      C1277   1.288       .  A
O1263     Zr1268   2.401       .  S
O1263     Zr1270   2.380       .  S
O1264     Zr1269   2.415       .  S
O1264     Zr1270   2.375       .  S
O1264      H1299   0.965       .  S
O1265     Zr1268   2.398       .  S
O1265     Zr1285   2.404       .  S
O1265      H1302   0.966       .  S
O1266     Zr1269   2.412       .  S
O1266     Zr1285   2.343       .  S
Zr1267     O1292   2.438       .  S
Zr1267     O1286   2.440   1_655  S
Zr1267     O1294   2.394       .  S
Zr1267     O1282   2.410       .  S
Zr1267     O1273   2.405       .  S
Zr1267     O1274   2.405       .  S
Zr1267     O1275   2.371       .  S
Zr1267     O1276   2.374       .  S
Zr1268     O1287   2.441       .  S
Zr1268     O1280   2.434       .  S
Zr1268     O1281   2.406       .  S
Zr1268     O1274   2.387       .  S
Zr1268     O1275   2.373       .  S
Zr1269     O1271   2.437       .  S
Zr1269     O1293   2.435       .  S
Zr1269     O1295   2.548       .  S
Zr1269     O1273   2.375       .  S
Zr1269     O1276   2.348       .  S
Zr1270     O1296   2.437       .  S
Zr1270     O1297   2.435       .  S
Zr1270     O1272   2.438       .  S
Zr1270     O1273   2.420       .  S
Zr1270     O1274   2.415       .  S
O1271      H1308   0.990   1_556  S
O1272      H1303   0.990       .  S
O1272      H1317   0.990       .  S
O1274      H1300   0.966       .  S
O1275     Zr1285   2.358       .  S
O1276     Zr1285   2.392       .  S
O1276      H1301   0.964       .  S
C1277      C2764   1.493       .  S
C1278      C2497   1.501       .  S
C1279      C2404   1.544       .  S
O1280      H1316   0.990       .  S
O1281      C1283   1.279       .  A
O1282      C1283   1.281       .  A
C1283      C2356   1.468       .  S
O1284     Zr1285   2.435   1_455  S
O1284      H1313   0.990   1_455  S
Zr1285     O1288   2.434   1_655  S
Zr1285     O1289   2.437   1_655  S
Zr1285     O1290   2.386   1_655  S
O1286      C1291   1.286       .  A
O1287      H1304   0.990       .  S
O1287      H1319   0.990       .  S
O1288      H1305   0.990       .  S
O1289      H1309   0.990       .  S
O1289      H1318   0.990       .  S
O1290      C1291   1.279       .  A
C1291      C2365   1.472       .  S
O1292      H1311   0.990       .  S
O1292      H1315   0.991       .  S
O1293      H1307   0.990       .  S
O1293      H1314   0.990   1_556  S
O1294      C1298   1.277       .  A
O1295      C1298   1.306       .  A
O1296      H1306   0.990       .  S
O1297      H1310   0.990       .  S
C1298      C2413   1.515       .  S
Zr1321     O1322   2.438       .  S
Zr1321     O1323   2.489       .  S
Zr1321     O1324   2.513       .  S
Zr1321     O1327   2.602       .  S
Zr1321     O1329   2.419       .  S
Zr1321     O1330   2.400       .  S
Zr1321     O1331   2.463       .  S
Zr1321     O1332   2.407       .  S
O1322      H1378   0.990       .  S
O1322      H1386   0.990       .  S
O1323      C1343   1.293       .  A
O1324      C1345   1.298       .  A
O1325     Zr1335   2.377       .  S
O1325      C1344   1.271       .  A
O1326     Zr1334   2.420       .  S
O1326      C1345   1.277       .  A
O1327      C1344   1.318       .  A
O1328     Zr1336   2.405       .  S
O1328      C1343   1.278       .  A
O1329     Zr1334   2.423       .  S
O1329     Zr1336   2.369       .  S
O1330     Zr1335   2.397       .  S
O1330     Zr1336   2.392       .  S
O1330      H1365   0.967       .  S
O1331     Zr1334   2.441       .  S
O1331     Zr1351   2.349       .  S
O1331      H1368   0.964       .  S
O1332     Zr1335   2.403       .  S
O1332     Zr1351   2.396       .  S
Zr1333     O1358   2.438       .  S
Zr1333     O1352   2.414       .  S
Zr1333     O1360   2.401       .  S
Zr1333     O1348   2.420       .  S
Zr1333     O1339   2.401       .  S
Zr1333     O1340   2.393       .  S
Zr1333     O1341   2.369       .  S
Zr1333     O1342   2.390       .  S
Zr1334     O1353   2.436       .  S
Zr1334     O1346   2.437       .  S
Zr1334     O1347   2.531       .  S
Zr1334     O1340   2.380       .  S
Zr1334     O1341   2.354       .  S
Zr1335     O1337   2.440       .  S
Zr1335     O1359   2.434       .  S
Zr1335     O1361   2.420       .  S
Zr1335     O1339   2.375       .  S
Zr1335     O1342   2.387       .  S
Zr1336     O1362   2.437       .  S
Zr1336     O1363   2.436       .  S
Zr1336     O1338   2.439       .  S
Zr1336     O1339   2.400       .  S
Zr1336     O1340   2.405       .  S
O1337      H1374   0.991       .  S
O1338      H1369   0.990       .  S
O1338      H1383   0.990       .  S
O1340      H1366   0.966       .  S
O1341     Zr1351   2.378       .  S
O1342     Zr1351   2.343       .  S
O1342      H1367   0.963       .  S
C1343      C2956   1.489       .  S
C1344      C2344   1.544       .  S
C1345      C2884   1.509       .  S
O1346      H1382   0.990       .  S
O1347      C1349   1.303       .  A
O1348      C1349   1.281       .  A
C1349      C2329   1.518       .  S
O1350     Zr1351   2.438       .  S
O1350      H1379   0.990       .  S
Zr1351     O1354   2.436       .  S
Zr1351     O1355   2.438       .  S
Zr1351     O1356   2.409       .  S
O1352      C1357   1.282       .  A
O1353      H1370   0.990       .  S
O1353      H1385   0.989       .  S
O1354      H1371   0.990       .  S
O1355      H1375   0.990       .  S
O1355      H1384   0.990       .  S
O1356      C1357   1.281       .  A
C1357      C2353   1.467       .  S
O1358      H1377   0.990       .  S
O1358      H1381   0.991       .  S
O1359      H1373   0.990       .  S
O1359      H1380   0.990       .  S
O1360      C1364   1.281       .  A
O1361      C1364   1.279       .  A
O1362      H1372   0.990       .  S
O1363      H1376   0.990       .  S
C1364      C2428   1.460       .  S
Zr1387     O1388   2.438   1_565  S
Zr1387     O1389   2.503       .  S
Zr1387     O1390   2.507   1_565  S
Zr1387     O1393   2.599   1_565  S
Zr1387     O1395   2.417       .  S
Zr1387     O1396   2.396       .  S
Zr1387     O1397   2.463       .  S
Zr1387     O1398   2.411       .  S
O1388      H1444   0.990       .  S
O1388      H1452   0.990       .  S
O1389      C1409   1.296       .  A
O1390      C1411   1.297   1_545  A
O1391     Zr1401   2.384       .  S
O1391      C1410   1.273   1_565  A
O1392     Zr1400   2.420       .  S
O1392      C1411   1.277       .  A
O1393      C1410   1.318       .  A
O1394     Zr1402   2.411       .  S
O1394      C1409   1.278       .  A
O1395     Zr1400   2.424       .  S
O1395     Zr1402   2.373       .  S
O1396     Zr1401   2.404       .  S
O1396     Zr1402   2.393       .  S
O1396      H1431   0.966       .  S
O1397     Zr1400   2.440       .  S
O1397     Zr1417   2.350       .  S
O1397      H1434   0.964       .  S
O1398     Zr1401   2.403       .  S
O1398     Zr1417   2.401       .  S
Zr1399     O1424   2.439       .  S
Zr1399     O1418   2.418       .  S
Zr1399     O1426   2.404       .  S
Zr1399     O1414   2.405       .  S
Zr1399     O1405   2.395       .  S
Zr1399     O1406   2.397       .  S
Zr1399     O1407   2.370       .  S
Zr1399     O1408   2.387       .  S
Zr1400     O1419   2.436       .  S
Zr1400     O1412   2.434       .  S
Zr1400     O1413   2.536       .  S
Zr1400     O1406   2.387       .  S
Zr1400     O1407   2.349       .  S
Zr1401     O1403   2.438       .  S
Zr1401     O1425   2.434       .  S
Zr1401     O1427   2.426       .  S
Zr1401     O1405   2.375       .  S
Zr1401     O1408   2.387       .  S
Zr1402     O1428   2.440       .  S
Zr1402     O1429   2.438       .  S
Zr1402     O1404   2.441       .  S
Zr1402     O1405   2.398       .  S
Zr1402     O1406   2.407       .  S
O1403      H1440   0.990       .  S
O1404      H1435   0.990       .  S
O1404      H1449   0.990       .  S
O1406      H1432   0.966       .  S
O1407     Zr1417   2.371       .  S
O1408     Zr1417   2.335       .  S
O1408      H1433   0.961       .  S
C1409      C2704   1.497       .  S
C1410      C2341   1.546       .  S
C1411      C2557   1.512   1_565  S
O1412      H1448   0.990   1_556  S
O1413      C1415   1.305       .  A
O1414      C1415   1.279       .  A
C1415      C2317   1.513       .  S
O1416     Zr1417   2.435   1_545  S
O1416      H1445   0.990       .  S
Zr1417     O1420   2.438       .  S
Zr1417     O1421   2.443       .  S
Zr1417     O1422   2.416       .  S
O1418      C1423   1.280       .  A
O1419      H1436   0.990       .  S
O1419      H1451   0.990       .  S
O1420      H1437   0.990       .  S
O1421      H1441   0.990       .  S
O1421      H1450   0.990       .  S
O1422      C1423   1.284       .  A
C1423      C2452   1.476       .  S
O1424      H1443   0.990       .  S
O1424      H1447   0.990       .  S
O1425      H1439   0.990       .  S
O1425      H1446   0.990       .  S
O1426      C1430   1.282       .  A
O1427      C1430   1.282       .  A
O1428      H1438   0.990       .  S
O1429      H1442   0.990       .  S
C1430      C2389   1.461       .  S
Zr1453     O1454   2.437       .  S
Zr1453     O1455   2.473       .  S
Zr1453     O1456   2.517       .  S
Zr1453     O1459   2.596       .  S
Zr1453     O1461   2.418       .  S
Zr1453     O1462   2.394       .  S
Zr1453     O1463   2.457       .  S
Zr1453     O1464   2.409       .  S
O1454      H1510   0.990       .  S
O1454      H1518   0.990       .  S
O1455      C1475   1.290       .  A
O1456      C1477   1.302       .  A
O1457     Zr1467   2.375       .  S
O1457      C1476   1.272       .  A
O1458     Zr1466   2.430       .  S
O1458      C1477   1.281       .  A
O1459      C1476   1.317       .  A
O1460     Zr1468   2.415       .  S
O1460      C1475   1.280       .  A
O1461     Zr1466   2.423       .  S
O1461     Zr1468   2.375       .  S
O1462     Zr1467   2.389       .  S
O1462     Zr1468   2.385       .  S
O1462      H1497   0.966       .  S
O1463     Zr1466   2.434       .  S
O1463     Zr1483   2.348       .  S
O1463      H1500   0.963       .  S
O1464     Zr1467   2.401       .  S
O1464     Zr1483   2.404       .  S
Zr1465     O1490   2.437       .  S
Zr1465     O1484   2.415       .  S
Zr1465     O1492   2.421       .  S
Zr1465     O1480   2.420       .  S
Zr1465     O1471   2.400       .  S
Zr1465     O1472   2.399       .  S
Zr1465     O1473   2.371       .  S
Zr1465     O1474   2.387       .  S
Zr1466     O1485   2.438       .  S
Zr1466     O1478   2.435       .  S
Zr1466     O1479   2.532       .  S
Zr1466     O1472   2.386       .  S
Zr1466     O1473   2.356       .  S
Zr1467     O1469   2.433       .  S
Zr1467     O1491   2.434       .  S
Zr1467     O1493   2.404       .  S
Zr1467     O1471   2.373       .  S
Zr1467     O1474   2.381       .  S
Zr1468     O1494   2.437       .  S
Zr1468     O1495   2.436       .  S
Zr1468     O1470   2.437       .  S
Zr1468     O1471   2.400       .  S
Zr1468     O1472   2.405       .  S
O1469      H1506   0.991       .  S
O1470      H1501   0.990       .  S
O1470      H1515   0.990       .  S
O1472      H1498   0.966       .  S
O1473     Zr1483   2.376       .  S
O1474     Zr1483   2.338       .  S
O1474      H1499   0.963       .  S
C1475      C3040   1.484       .  S
C1476      C2305   1.547       .  S
C1477      C3136   1.511       .  S
O1478      H1514   0.990       .  S
O1479      C1481   1.304       .  A
O1480      C1481   1.282       .  A
C1481      C2332   1.518       .  S
O1482     Zr1483   2.436       .  S
O1482      H1511   0.990       .  S
Zr1483     O1486   2.437       .  S
Zr1483     O1487   2.440       .  S
Zr1483     O1488   2.418       .  S
O1484      C1489   1.280       .  A
O1485      H1502   0.989       .  S
O1485      H1517   0.990       .  S
O1486      H1503   0.990       .  S
O1487      H1507   0.990       .  S
O1487      H1516   0.990       .  S
O1488      C1489   1.284       .  A
C1489      C2437   1.478       .  S
O1490      H1509   0.990       .  S
O1490      H1513   0.990       .  S
O1491      H1505   0.990       .  S
O1491      H1512   0.990       .  S
O1492      C1496   1.285       .  A
O1493      C1496   1.277       .  A
O1494      H1504   0.990       .  S
O1495      H1508   0.990       .  S
C1496      C2368   1.464       .  S
Zr1519     O1520   2.436       .  S
Zr1519     O1521   2.484       .  S
Zr1519     O1522   2.505       .  S
Zr1519     O1525   2.588       .  S
Zr1519     O1527   2.414       .  S
Zr1519     O1528   2.393       .  S
Zr1519     O1529   2.464       .  S
Zr1519     O1530   2.416       .  S
O1520      H1576   0.990       .  S
O1520      H1584   0.990       .  S
O1521      C1541   1.293       .  A
O1522      C1543   1.297       .  A
O1523     Zr1533   2.382       .  S
O1523      C1542   1.272       .  A
O1524     Zr1532   2.431       .  S
O1524      C1543   1.278       .  A
O1525      C1542   1.316       .  A
O1526     Zr1534   2.424       .  S
O1526      C1541   1.281       .  A
O1527     Zr1532   2.419       .  S
O1527     Zr1534   2.369       .  S
O1528     Zr1533   2.402       .  S
O1528     Zr1534   2.389       .  S
O1528      H1563   0.966       .  S
O1529     Zr1532   2.435       .  S
O1529     Zr1549   2.340       .  S
O1529      H1566   0.962       .  S
O1530     Zr1533   2.402       .  S
O1530     Zr1549   2.403       .  S
Zr1531     O1556   2.440       .  S
Zr1531     O1550   2.413       .  S
Zr1531     O1558   2.409       .  S
Zr1531     O1546   2.411       .  S
Zr1531     O1537   2.401       .  S
Zr1531     O1538   2.396       .  S
Zr1531     O1539   2.372       .  S
Zr1531     O1540   2.390       .  S
Zr1532     O1551   2.436       .  S
Zr1532     O1544   2.433       .  S
Zr1532     O1545   2.530       .  S
Zr1532     O1538   2.381       .  S
Zr1532     O1539   2.356       .  S
Zr1533     O1535   2.439       .  S
Zr1533     O1557   2.435       .  S
Zr1533     O1559   2.420       .  S
Zr1533     O1537   2.382       .  S
Zr1533     O1540   2.388       .  S
Zr1534     O1560   2.435       .  S
Zr1534     O1561   2.436       .  S
Zr1534     O1536   2.439       .  S
Zr1534     O1537   2.407       .  S
Zr1534     O1538   2.401       .  S
O1535      H1572   0.990       .  S
O1536      H1567   0.990       .  S
O1536      H1581   0.990       .  S
O1538      H1564   0.966       .  S
O1539     Zr1549   2.378       .  S
O1540     Zr1549   2.334       .  S
O1540      H1565   0.963       .  S
C1541      C2512   1.497       .  S
C1542      C2308   1.540       .  S
C1543      C2749   1.512       .  S
O1544      H1580   0.990       .  S
O1545      C1547   1.303       .  A
O1546      C1547   1.280       .  A
C1547      C2320   1.512       .  S
O1548     Zr1549   2.436       .  S
O1548      H1577   0.990       .  S
Zr1549     O1552   2.435       .  S
Zr1549     O1553   2.438       .  S
Zr1549     O1554   2.419       .  S
O1550      C1555   1.281       .  A
O1551      H1568   0.990       .  S
O1551      H1583   0.990       .  S
O1552      H1569   0.990       .  S
O1553      H1573   0.990       .  S
O1553      H1582   0.990       .  S
O1554      C1555   1.283       .  A
C1555      C2380   1.471       .  S
O1556      H1575   0.990       .  S
O1556      H1579   0.990       .  S
O1557      H1571   0.990       .  S
O1557      H1578   0.990       .  S
O1558      C1562   1.282       .  A
O1559      C1562   1.281       .  A
O1560      H1570   0.990       .  S
O1561      H1574   0.990       .  S
C1562      C2476   1.461       .  S
Zr1585     O1586   2.437       .  S
Zr1585     O1587   2.472       .  S
Zr1585     O1588   2.521       .  S
Zr1585     O1591   2.613       .  S
Zr1585     O1593   2.421       .  S
Zr1585     O1594   2.393       .  S
Zr1585     O1595   2.462       .  S
Zr1585     O1596   2.404       .  S
O1586      H1642   0.990       .  S
O1586      H1650   0.990       .  S
O1587      C1607   1.290       .  A
O1588      C1609   1.300       .  A
O1589     Zr1599   2.378       .  S
O1589      C1608   1.271       .  A
O1590     Zr1598   2.415       .  S
O1590      C1609   1.274       .  A
O1591      C1608   1.321       .  A
O1592     Zr1600   2.416       .  S
O1592      C1607   1.280       .  A
O1593     Zr1598   2.422       .  S
O1593     Zr1600   2.363       .  S
O1594     Zr1599   2.393       .  S
O1594     Zr1600   2.393       .  S
O1594      H1629   0.966       .  S
O1595     Zr1598   2.447       .  S
O1595     Zr1615   2.353       .  S
O1595      H1632   0.964       .  S
O1596     Zr1599   2.406       .  S
O1596     Zr1615   2.405       .  S
Zr1597     O1622   2.438       .  S
Zr1597     O1616   2.401       .  S
Zr1597     O1624   2.418       .  S
Zr1597     O1612   2.423       .  S
Zr1597     O1603   2.399       .  S
Zr1597     O1604   2.396       .  S
Zr1597     O1605   2.369       .  S
Zr1597     O1606   2.388       .  S
Zr1598     O1617   2.438       .  S
Zr1598     O1610   2.435       .  S
Zr1598     O1611   2.528       .  S
Zr1598     O1604   2.383       .  S
Zr1598     O1605   2.349       .  S
Zr1599     O1601   2.444       .  S
Zr1599     O1623   2.436       .  S
Zr1599     O1625   2.410       .  S
Zr1599     O1603   2.377       .  S
Zr1599     O1606   2.394       .  S
Zr1600     O1626   2.436       .  S
Zr1600     O1627   2.435       .  S
Zr1600     O1602   2.437       .  S
Zr1600     O1603   2.405       .  S
Zr1600     O1604   2.398       .  S
O1601      H1638   0.991       .  S
O1602      H1633   0.990       .  S
O1602      H1647   0.990       .  S
O1604      H1630   0.966       .  S
O1605     Zr1615   2.375       .  S
O1606     Zr1615   2.345       .  S
O1606      H1631   0.961       .  S
C1607      C3088   1.487       .  S
C1608      C2293   1.553       .  S
C1609      C2908   1.517       .  S
O1610      H1646   0.990       .  S
O1611      C1613   1.303       .  A
O1612      C1613   1.282       .  A
C1613      C2257   1.517       .  S
O1614     Zr1615   2.435       .  S
O1614      H1643   0.991       .  S
Zr1615     O1618   2.436       .  S
Zr1615     O1619   2.442       .  S
Zr1615     O1620   2.425       .  S
O1616      C1621   1.279       .  A
O1617      H1634   0.989       .  S
O1617      H1649   0.989       .  S
O1618      H1635   0.989       .  S
O1619      H1639   0.990       .  S
O1619      H1648   0.990       .  S
O1620      C1621   1.284       .  A
C1621      C2284   1.468   1_455  S
O1622      H1641   0.990       .  S
O1622      H1645   0.991       .  S
O1623      H1637   0.990       .  S
O1623      H1644   0.990       .  S
O1624      C1628   1.284       .  A
O1625      C1628   1.278       .  A
O1626      H1636   0.990       .  S
O1627      H1640   0.990       .  S
C1628      C2272   1.457       .  S
Zr1651     O1652   2.438       .  S
Zr1651     O1653   2.489       .  S
Zr1651     O1654   2.506       .  S
Zr1651     O1657   2.613       .  S
Zr1651     O1659   2.425       .  S
Zr1651     O1660   2.395       .  S
Zr1651     O1661   2.470       .  S
Zr1651     O1662   2.402       .  S
O1652      H1708   0.990       .  S
O1652      H1716   0.990       .  S
O1653      C1673   1.294       .  A
O1654      C1675   1.296       .  A
O1655     Zr1665   2.375       .  S
O1655      C1674   1.272       .  A
O1656     Zr1664   2.421       .  S
O1656      C1675   1.274       .  A
O1657      C1674   1.321       .  A
O1658     Zr1666   2.417       .  S
O1658      C1673   1.279       .  A
O1659     Zr1664   2.433       .  S
O1659     Zr1666   2.368       .  S
O1660     Zr1665   2.400       .  S
O1660     Zr1666   2.392       .  S
O1660      H1695   0.966       .  S
O1661     Zr1664   2.444       .  S
O1661     Zr1681   2.345       .  S
O1661      H1698   0.959       .  S
O1662     Zr1665   2.398       .  S
O1662     Zr1681   2.393       .  S
Zr1663     O1688   2.437       .  S
Zr1663     O1682   2.410       .  S
Zr1663     O1690   2.409       .  S
Zr1663     O1678   2.413       .  S
Zr1663     O1669   2.401       .  S
Zr1663     O1670   2.392       .  S
Zr1663     O1671   2.369       .  S
Zr1663     O1672   2.383       .  S
Zr1664     O1683   2.435       .  S
Zr1664     O1676   2.436       .  S
Zr1664     O1677   2.555       .  S
Zr1664     O1670   2.378       .  S
Zr1664     O1671   2.351       .  S
Zr1665     O1667   2.438       .  S
Zr1665     O1689   2.434       .  S
Zr1665     O1691   2.409       .  S
Zr1665     O1669   2.381       .  S
Zr1665     O1672   2.379       .  S
Zr1666     O1692   2.437       .  S
Zr1666     O1693   2.435       .  S
Zr1666     O1668   2.438       .  S
Zr1666     O1669   2.401       .  S
Zr1666     O1670   2.405       .  S
O1667      H1704   0.991       .  S
O1668      H1699   0.990       .  S
O1668      H1713   0.990       .  S
O1670      H1696   0.966       .  S
O1671     Zr1681   2.384       .  S
O1672     Zr1681   2.346       .  S
O1672      H1697   0.964       .  S
C1673      C2536   1.494       .  S
C1674      C2296   1.547       .  S
C1675      C2596   1.500       .  S
O1676      H1712   0.990       .  S
O1677      C1679   1.308       .  A
O1678      C1679   1.280       .  A
C1679      C2221   1.526       .  S
O1680     Zr1681   2.436       .  S
O1680      H1709   0.990       .  S
Zr1681     O1684   2.436       .  S
Zr1681     O1685   2.438       .  S
Zr1681     O1686   2.398       .  S
O1682      C1687   1.279       .  A
O1683      H1700   0.990       .  S
O1683      H1715   0.990       .  S
O1684      H1701   0.990       .  S
O1685      H1705   0.990       .  S
O1685      H1714   0.990       .  S
O1686      C1687   1.280       .  A
C1687      C2236   1.469       .  S
O1688      H1707   0.990       .  S
O1688      H1711   0.990       .  S
O1689      H1703   0.990       .  S
O1689      H1710   0.990       .  S
O1690      C1694   1.282       .  A
O1691      C1694   1.278       .  A
O1692      H1702   0.989       .  S
O1693      H1706   0.990       .  S
C1694      C2248   1.464       .  S
Zr1717     O1718   2.440   1_545  S
Zr1717     O1719   2.490       .  S
Zr1717     O1720   2.507       .  S
Zr1717     O1723   2.600   1_545  S
Zr1717     O1725   2.411       .  S
Zr1717     O1726   2.392       .  S
Zr1717     O1727   2.460       .  S
Zr1717     O1728   2.410       .  S
O1718      H1774   0.990       .  S
O1718      H1782   0.990       .  S
O1719      C1739   1.293       .  A
O1720      C1741   1.300       .  A
O1721     Zr1731   2.369       .  S
O1721      C1740   1.270   1_545  A
O1722     Zr1730   2.431       .  S
O1722      C1741   1.280       .  A
O1723      C1740   1.318       .  A
O1724     Zr1732   2.415       .  S
O1724      C1739   1.280       .  A
O1725     Zr1730   2.421       .  S
O1725     Zr1732   2.370       .  S
O1726     Zr1731   2.401       .  S
O1726     Zr1732   2.393       .  S
O1726      H1761   0.966       .  S
O1727     Zr1730   2.433       .  S
O1727     Zr1747   2.346       .  S
O1727      H1764   0.962       .  S
O1728     Zr1731   2.394       .  S
O1728     Zr1747   2.405       .  S
Zr1729     O1754   2.438       .  S
Zr1729     O1748   2.392       .  S
Zr1729     O1756   2.410       .  S
Zr1729     O1744   2.415       .  S
Zr1729     O1735   2.397       .  S
Zr1729     O1736   2.394       .  S
Zr1729     O1737   2.372       .  S
Zr1729     O1738   2.386       .  S
Zr1730     O1749   2.436   1_655  S
Zr1730     O1742   2.435       .  S
Zr1730     O1743   2.534       .  S
Zr1730     O1736   2.388       .  S
Zr1730     O1737   2.358       .  S
Zr1731     O1733   2.439       .  S
Zr1731     O1755   2.435       .  S
Zr1731     O1757   2.404       .  S
Zr1731     O1735   2.381       .  S
Zr1731     O1738   2.377       .  S
Zr1732     O1758   2.435       .  S
Zr1732     O1759   2.439       .  S
Zr1732     O1734   2.448       .  S
Zr1732     O1735   2.401       .  S
Zr1732     O1736   2.400       .  S
O1733      H1770   0.991       .  S
O1734      H1765   0.989       .  S
O1734      H1779   0.990       .  S
O1736      H1762   0.966       .  S
O1737     Zr1747   2.372       .  S
O1738     Zr1747   2.341       .  S
O1738      H1763   0.964       .  S
C1739      C2992   1.494       .  S
C1740      C2209   1.539       .  S
C1741      C3193   1.502       .  S
O1742      H1778   0.990       .  S
O1743      C1745   1.304       .  A
O1744      C1745   1.281       .  A
C1745      C2260   1.519       .  S
O1746     Zr1747   2.435   1_455  S
O1746      H1775   0.990   1_445  S
Zr1747     O1750   2.438   1_655  S
Zr1747     O1751   2.439   1_655  S
Zr1747     O1752   2.422   1_655  S
O1748      C1753   1.278   1_655  A
O1749      H1766   0.990       .  S
O1749      H1781   0.990       .  S
O1750      H1767   0.990       .  S
O1751      H1771   0.990       .  S
O1751      H1780   0.990   1_455  S
O1752      C1753   1.284       .  A
C1753      C2197   1.466       .  S
O1754      H1773   0.990       .  S
O1754      H1777   0.990       .  S
O1755      H1769   0.990       .  S
O1755      H1776   0.990       .  S
O1756      C1760   1.282       .  A
O1757      C1760   1.277       .  A
O1758      H1768   0.990       .  S
O1759      H1772   0.990       .  S
C1760      C2188   1.459       .  S
Zr1783     O1784   2.438       .  S
Zr1783     O1785   2.482       .  S
Zr1783     O1786   2.501       .  S
Zr1783     O1789   2.607       .  S
Zr1783     O1791   2.423       .  S
Zr1783     O1792   2.393       .  S
Zr1783     O1793   2.464       .  S
Zr1783     O1794   2.403       .  S
O1784      H1840   0.990       .  S
O1784      H1848   0.990       .  S
O1785      C1805   1.292       .  A
O1786      C1807   1.296       .  A
O1787     Zr1797   2.369       .  S
O1787      C1806   1.271       .  A
O1788     Zr1796   2.423       .  S
O1788      C1807   1.278       .  A
O1789      C1806   1.319       .  A
O1790     Zr1798   2.416       .  S
O1790      C1805   1.280       .  A
O1791     Zr1796   2.430       .  S
O1791     Zr1798   2.370       .  S
O1792     Zr1797   2.395       .  S
O1792     Zr1798   2.391       .  S
O1792      H1827   0.966       .  S
O1793     Zr1796   2.444       .  S
O1793     Zr1813   2.349       .  S
O1793      H1830   0.963       .  S
O1794     Zr1797   2.399       .  S
O1794     Zr1813   2.397       .  S
Zr1795     O1820   2.437       .  S
Zr1795     O1814   2.397       .  S
Zr1795     O1822   2.410       .  S
Zr1795     O1810   2.416       .  S
Zr1795     O1801   2.400       .  S
Zr1795     O1802   2.391       .  S
Zr1795     O1803   2.370       .  S
Zr1795     O1804   2.385       .  S
Zr1796     O1815   2.438       .  S
Zr1796     O1808   2.433       .  S
Zr1796     O1809   2.551       .  S
Zr1796     O1802   2.382       .  S
Zr1796     O1803   2.352       .  S
Zr1797     O1799   2.436       .  S
Zr1797     O1821   2.434       .  S
Zr1797     O1823   2.409       .  S
Zr1797     O1801   2.379       .  S
Zr1797     O1804   2.377       .  S
Zr1798     O1824   2.437       .  S
Zr1798     O1825   2.434       .  S
Zr1798     O1800   2.437       .  S
Zr1798     O1801   2.403       .  S
Zr1798     O1802   2.403       .  S
O1799      H1836   0.991       .  S
O1800      H1831   0.990       .  S
O1800      H1845   0.990       .  S
O1802      H1828   0.966       .  S
O1803     Zr1813   2.381       .  S
O1804     Zr1813   2.350       .  S
O1804      H1829   0.963       .  S
C1805      C2656   1.491       .  S
C1806      C2212   1.547       .  S
C1807      C2812   1.508       .  S
O1808      H1844   0.990       .  S
O1809      C1811   1.307       .  A
O1810      C1811   1.281       .  A
C1811      C2224   1.528       .  S
O1812     Zr1813   2.440       .  S
O1812      H1841   0.990       .  S
Zr1813     O1816   2.439       .  S
Zr1813     O1817   2.441       .  S
Zr1813     O1818   2.404       .  S
O1814      C1819   1.276       .  A
O1815      H1832   0.989       .  S
O1815      H1847   0.990       .  S
O1816      H1833   0.990       .  S
O1817      H1837   0.990       .  S
O1817      H1846   0.990       .  S
O1818      C1819   1.281       .  A
C1819      C2161   1.463       .  S
O1820      H1839   0.990       .  S
O1820      H1843   0.990       .  S
O1821      H1835   0.990       .  S
O1821      H1842   0.990       .  S
O1822      C1826   1.281       .  A
O1823      C1826   1.278       .  A
O1824      H1834   0.989   1_565  S
O1825      H1838   0.990       .  S
C1826      C2173   1.461       .  S
Zr1849     O1850   2.436   1_565  S
Zr1849     O1851   2.476   1_565  S
Zr1849     O1852   2.616   1_565  S
Zr1849     O1855   2.543   1_565  S
Zr1849     O1857   2.386       .  S
Zr1849     O1858   2.440       .  S
Zr1849     O1859   2.407       .  S
Zr1849     O1860   2.396       .  S
O1850      H1906   0.990       .  S
O1850      H1914   0.990       .  S
O1851      C1871   1.292   1_545  A
O1852      C1873   1.322       .  A
O1853     Zr1863   2.429       .  S
O1853      C1872   1.278       .  A
O1854     Zr1862   2.370   1_545  S
O1854      C1873   1.272       .  A
O1855      C1872   1.305   1_545  A
O1856     Zr1864   2.448       .  S
O1856      C1871   1.286       .  A
O1857     Zr1862   2.401       .  S
O1857     Zr1864   2.384       .  S
O1858     Zr1863   2.415       .  S
O1858     Zr1864   2.368       .  S
O1858      H1893   0.963       .  S
O1859     Zr1862   2.396       .  S
O1859     Zr1879   2.397       .  S
O1859      H1896   0.966   1_565  S
O1860     Zr1863   2.414       .  S
O1860     Zr1879   2.330       .  S
Zr1861     O1886   2.439       .  S
Zr1861     O1880   2.452       .  S
Zr1861     O1888   2.408       .  S
Zr1861     O1876   2.400       .  S
Zr1861     O1867   2.408       .  S
Zr1861     O1868   2.414       .  S
Zr1861     O1869   2.376       .  S
Zr1861     O1870   2.369       .  S
Zr1862     O1881   2.439       .  S
Zr1862     O1874   2.435       .  S
Zr1862     O1875   2.409       .  S
Zr1862     O1868   2.387       .  S
Zr1862     O1869   2.374       .  S
Zr1863     O1865   2.432       .  S
Zr1863     O1887   2.435       .  S
Zr1863     O1889   2.539       .  S
Zr1863     O1867   2.375       .  S
Zr1863     O1870   2.348       .  S
Zr1864     O1890   2.437       .  S
Zr1864     O1891   2.435       .  S
Zr1864     O1866   2.438       .  S
Zr1864     O1867   2.420       .  S
Zr1864     O1868   2.414       .  S
O1865      H1902   0.990       .  S
O1866      H1897   0.990       .  S
O1866      H1911   0.990       .  S
O1868      H1894   0.966       .  S
O1869     Zr1879   2.366       .  S
O1870     Zr1879   2.396       .  S
O1870      H1895   0.965       .  S
C1871      C3205   1.492       .  S
C1872      C2977   1.519   1_565  S
C1873      C2152   1.548       .  S
O1874      H1910   0.990       .  S
O1875      C1877   1.277       .  A
O1876      C1877   1.280       .  A
C1877      C2233   1.475       .  S
O1878     Zr1879   2.438   1_545  S
O1878      H1907   0.990       .  S
Zr1879     O1882   2.439       .  S
Zr1879     O1883   2.438       .  S
Zr1879     O1884   2.365       .  S
O1880      C1885   1.287       .  A
O1881      H1898   0.990       .  S
O1881      H1913   0.990       .  S
O1882      H1899   0.990       .  S
O1883      H1903   0.990       .  S
O1883      H1912   0.989       .  S
O1884      C1885   1.275       .  A
C1885      C2176   1.475       .  S
O1886      H1905   0.990       .  S
O1886      H1909   0.991       .  S
O1887      H1901   0.990       .  S
O1887      H1908   0.990       .  S
O1888      C1892   1.278       .  A
O1889      C1892   1.304       .  A
O1890      H1900   0.990       .  S
O1891      H1904   0.990       .  S
C1892      C2137   1.520       .  S
Zr1915     O1916   2.436       .  S
Zr1915     O1917   2.478       .  S
Zr1915     O1918   2.608       .  S
Zr1915     O1921   2.516       .  S
Zr1915     O1923   2.381       .  S
Zr1915     O1924   2.432       .  S
Zr1915     O1925   2.412       .  S
Zr1915     O1926   2.411       .  S
O1916      H1972   0.990       .  S
O1916      H1980   0.990       .  S
O1917      C1937   1.292       .  A
O1918      C1939   1.319       .  A
O1919     Zr1929   2.427       .  S
O1919      C1938   1.279       .  A
O1920     Zr1928   2.375       .  S
O1920      C1939   1.273       .  A
O1921      C1938   1.302       .  A
O1922     Zr1930   2.437       .  S
O1922      C1937   1.285       .  A
O1923     Zr1928   2.398       .  S
O1923     Zr1930   2.387       .  S
O1924     Zr1929   2.408       .  S
O1924     Zr1930   2.375       .  S
O1924      H1959   0.964       .  S
O1925     Zr1928   2.393       .  S
O1925     Zr1945   2.412       .  S
O1925      H1962   0.966       .  S
O1926     Zr1929   2.416       .  S
O1926     Zr1945   2.351       .  S
Zr1927     O1952   2.438       .  S
Zr1927     O1946   2.406       .  S
Zr1927     O1954   2.409       .  S
Zr1927     O1942   2.409       .  S
Zr1927     O1933   2.398       .  S
Zr1927     O1934   2.400       .  S
Zr1927     O1935   2.383       .  S
Zr1927     O1936   2.377       .  S
Zr1928     O1947   2.439       .  S
Zr1928     O1940   2.437       .  S
Zr1928     O1941   2.407       .  S
Zr1928     O1934   2.386       .  S
Zr1928     O1935   2.377       .  S
Zr1929     O1931   2.437       .  S
Zr1929     O1953   2.434       .  S
Zr1929     O1955   2.541       .  S
Zr1929     O1933   2.380       .  S
Zr1929     O1936   2.342       .  S
Zr1930     O1956   2.435       .  S
Zr1930     O1957   2.436       .  S
Zr1930     O1932   2.437       .  S
Zr1930     O1933   2.411       .  S
Zr1930     O1934   2.403       .  S
O1931      H1968   0.990       .  S
O1932      H1963   0.990       .  S
O1932      H1977   0.990       .  S
O1934      H1960   0.966       .  S
O1935     Zr1945   2.360       .  S
O1936     Zr1945   2.385       .  S
O1936      H1961   0.964       .  S
C1937      C2608   1.493       .  S
C1938      C2524   1.500       .  S
C1939      C2149   1.550       .  S
O1940      H1976   0.990       .  S
O1941      C1943   1.279       .  A
O1942      C1943   1.281       .  A
C1943      C2200   1.467       .  S
O1944     Zr1945   2.436       .  S
O1944      H1973   0.990       .  S
Zr1945     O1948   2.437       .  S
Zr1945     O1949   2.436       .  S
Zr1945     O1950   2.413       .  S
O1946      C1951   1.280       .  A
O1947      H1964   0.990       .  S
O1947      H1979   0.990       .  S
O1948      H1965   0.990       .  S
O1949      H1969   0.990       .  S
O1949      H1978   0.990       .  S
O1950      C1951   1.283       .  A
C1951      C2269   1.461       .  S
O1952      H1971   0.990       .  S
O1952      H1975   0.990       .  S
O1953      H1967   0.990       .  S
O1953      H1974   0.990       .  S
O1954      C1958   1.279       .  A
O1955      C1958   1.305       .  A
O1956      H1966   0.990       .  S
O1957      H1970   0.990       .  S
C1958      C2125   1.517       .  S
Zr1981     O1982   2.435       .  S
Zr1981     O1983   2.468       .  S
Zr1981     O1984   2.618       .  S
Zr1981     O1987   2.529       .  S
Zr1981     O1989   2.381       .  S
Zr1981     O1990   2.438       .  S
Zr1981     O1991   2.401       .  S
Zr1981     O1992   2.408       .  S
O1982      H2038   0.990       .  S
O1982      H2046   0.990       .  S
O1983      C2003   1.290       .  A
O1984      C2005   1.322       .  A
O1985     Zr1995   2.424       .  S
O1985      C2004   1.278       .  A
O1986     Zr1994   2.384       .  S
O1986      C2005   1.275       .  A
O1987      C2004   1.303       .  A
O1988     Zr1996   2.441       .  S
O1988      C2003   1.285       .  A
O1989     Zr1994   2.397       .  S
O1989     Zr1996   2.382       .  S
O1990     Zr1995   2.418       .  S
O1990     Zr1996   2.372       .  S
O1990      H2025   0.963       .  S
O1991     Zr1994   2.393       .  S
O1991     Zr2011   2.398       .  S
O1991      H2028   0.966       .  S
O1992     Zr1995   2.421       .  S
O1992     Zr2011   2.343       .  S
Zr1993     O2018   2.439       .  S
Zr1993     O2012   2.434       .  S
Zr1993     O2020   2.407       .  S
Zr1993     O2008   2.392       .  S
Zr1993     O1999   2.406       .  S
Zr1993     O2000   2.406       .  S
Zr1993     O2001   2.379       .  S
Zr1993     O2002   2.369       .  S
Zr1994     O2013   2.437       .  S
Zr1994     O2006   2.438       .  S
Zr1994     O2007   2.412       .  S
Zr1994     O2000   2.389       .  S
Zr1994     O2001   2.377       .  S
Zr1995     O1997   2.436       .  S
Zr1995     O2019   2.436       .  S
Zr1995     O2021   2.547       .  S
Zr1995     O1999   2.382       .  S
Zr1995     O2002   2.343       .  S
Zr1996     O2022   2.437       .  S
Zr1996     O2023   2.437       .  S
Zr1996     O1998   2.440       .  S
Zr1996     O1999   2.424       .  S
Zr1996     O2000   2.406       .  S
O1997      H2034   0.990       .  S
O1998      H2029   0.990       .  S
O1998      H2043   0.990       .  S
O2000      H2026   0.966       .  S
O2001     Zr2011   2.358       .  S
O2002     Zr2011   2.389       .  S
O2002      H2027   0.965       .  S
C2003      C2920   1.488       .  S
C2004      C3076   1.513       .  S
C2005      C2113   1.556       .  S
O2006      H2042   0.990       .  S
O2007      C2009   1.277       .  A
O2008      C2009   1.280       .  A
C2009      C2164   1.471       .  S
O2010     Zr2011   2.434       .  S
O2010      H2039   0.990       .  S
Zr2011     O2014   2.436       .  S
Zr2011     O2015   2.436       .  S
Zr2011     O2016   2.387       .  S
O2012      C2017   1.284       .  A
O2013      H2030   0.990       .  S
O2013      H2045   0.990       .  S
O2014      H2031   0.990       .  S
O2015      H2035   0.990       .  S
O2015      H2044   0.990       .  S
O2016      C2017   1.279       .  A
C2017      C2245   1.472       .  S
O2018      H2037   0.991       .  S
O2018      H2041   0.990       .  S
O2019      H2033   0.990       .  S
O2019      H2040   0.990       .  S
O2020      C2024   1.278       .  A
O2021      C2024   1.306       .  A
O2022      H2032   0.990       .  S
O2023      H2036   0.990       .  S
C2024      C2140   1.518       .  S
Zr2047     O2048   2.434       .  S
Zr2047     O2049   2.470       .  S
Zr2047     O2050   2.622       .  S
Zr2047     O2053   2.527       .  S
Zr2047     O2055   2.380       .  S
Zr2047     O2056   2.436       .  S
Zr2047     O2057   2.407       .  S
Zr2047     O2058   2.408       .  S
O2048      H2104   0.990       .  S
O2048      H2112   0.990       .  S
O2049      C2069   1.290       .  A
O2050      C2071   1.323       .  A
O2051     Zr2061   2.424       .  S
O2051      C2070   1.277       .  A
O2052     Zr2060   2.374       .  S
O2052      C2071   1.273       .  A
O2053      C2070   1.304       .  A
O2054     Zr2062   2.453       .  S
O2054      C2069   1.288       .  A
O2055     Zr2060   2.400       .  S
O2055     Zr2062   2.380       .  S
O2056     Zr2061   2.408       .  S
O2056     Zr2062   2.372       .  S
O2056      H2091   0.964       .  S
O2057     Zr2060   2.393       .  S
O2057     Zr2077   2.408       .  S
O2057      H2094   0.966       .  S
O2058     Zr2061   2.412       .  S
O2058     Zr2077   2.342       .  S
Zr2059     O2084   2.438       .  S
Zr2059     O2078   2.416       .  S
Zr2059     O2086   2.422       .  S
Zr2059     O2074   2.420       .  S
Zr2059     O2065   2.408       .  S
Zr2059     O2066   2.411       .  S
Zr2059     O2067   2.382       .  S
Zr2059     O2068   2.377       .  S
Zr2060     O2079   2.439       .  S
Zr2060     O2072   2.435       .  S
Zr2060     O2073   2.398       .  S
Zr2060     O2066   2.392       .  S
Zr2060     O2067   2.373       .  S
Zr2061     O2063   2.436       .  S
Zr2061     O2085   2.434       .  S
Zr2061     O2087   2.532       .  S
Zr2061     O2065   2.375       .  S
Zr2061     O2068   2.349       .  S
Zr2062     O2088   2.435       .  S
Zr2062     O2089   2.437       .  S
Zr2062     O2064   2.437       .  S
Zr2062     O2065   2.424       .  S
Zr2062     O2066   2.413       .  S
O2063      H2100   0.990       .  S
O2064      H2095   0.990       .  S
O2064      H2109   0.990       .  S
O2066      H2092   0.966       .  S
O2067     Zr2077   2.357       .  S
O2068     Zr2077   2.389       .  S
O2068      H2093   0.965       .  S
C2069      C2824   1.496       .  S
C2070      C2644   1.505       .  S
C2071      C2116   1.552       .  S
O2072      H2108   0.990       .  S
O2073      C2075   1.277       .  A
O2074      C2075   1.283       .  A
C2075      C2281   1.464       .  S
O2076     Zr2077   2.437       .  S
O2076      H2105   0.990       .  S
Zr2077     O2080   2.435       .  S
Zr2077     O2081   2.436       .  S
Zr2077     O2082   2.398       .  S
O2078      C2083   1.280       .  A
O2079      H2096   0.990       .  S
O2079      H2111   0.990       .  S
O2080      H2097   0.990       .  S
O2081      H2101   0.990       .  S
O2081      H2110   0.990       .  S
O2082      C2083   1.281       .  A
C2083      C2185   1.470       .  S
O2084      H2103   0.990       .  S
O2084      H2107   0.991       .  S
O2085      H2099   0.990       .  S
O2085      H2106   0.990       .  S
O2086      C2090   1.282       .  A
O2087      C2090   1.303       .  A
O2088      H2098   0.990       .  S
O2089      H2102   0.990       .  S
C2090      C2128   1.518       .  S
C2113      C2114   1.431       .  A
C2113      C2118   1.416       .  A
C2114      C2115   1.427       .  A
C2114      H2123   1.082       .  S
C2115      C2116   1.414       .  A
C2115      S2119   1.797       .  S
C2116      C2117   1.431       .  A
C2117      C2118   1.430       .  A
C2117      H2124   1.083       .  S
C2118      S2120   1.796       .  S
S2119      H2122   1.407       .  S
S2120      H2121   1.407       .  S
C2125      C2126   1.413       .  A
C2125      C2130   1.419       .  A
C2126      C2127   1.419   1_455  A
C2126      H2135   1.084       .  S
C2127      C2128   1.420       .  A
C2127      S2131   1.801       .  S
C2128      C2129   1.411   1_655  A
C2129      C2130   1.418       .  A
C2129      H2136   1.084       .  S
C2130      S2132   1.801       .  S
S2131      H2134   1.404       .  S
S2132      H2133   1.404       .  S
C2137      C2138   1.413       .  A
C2137      C2142   1.419       .  A
C2138      C2139   1.419       .  A
C2138      H2147   1.084       .  S
C2139      C2140   1.420       .  A
C2139      S2143   1.802       .  S
C2140      C2141   1.413       .  A
C2141      C2142   1.420       .  A
C2141      H2148   1.083       .  S
C2142      S2144   1.799       .  S
S2143      H2146   1.404       .  S
S2144      H2145   1.404       .  S
C2149      C2150   1.431       .  A
C2149      C2154   1.415       .  A
C2150      C2151   1.425       .  A
C2150      H2159   1.083       .  S
C2151      C2152   1.413       .  A
C2151      S2155   1.797       .  S
C2152      C2153   1.431       .  A
C2153      C2154   1.426       .  A
C2153      H2160   1.083       .  S
C2154      S2156   1.797       .  S
S2155      H2158   1.406       .  S
S2156      H2157   1.406       .  S
C2161      C2162   1.401       .  A
C2161      C2166   1.408       .  A
C2162      C2163   1.393       .  A
C2162      H2171   1.083       .  S
C2163      C2164   1.415       .  A
C2163      S2167   1.809       .  S
C2164      C2165   1.406       .  A
C2165      C2166   1.387       .  A
C2165      H2172   1.085       .  S
C2166      S2168   1.797       .  S
S2167      H2170   1.407       .  S
S2168      H2169   1.408       .  S
C2173      C2174   1.405       .  A
C2173      C2178   1.409       .  A
C2174      C2175   1.391       .  A
C2174      H2183   1.080       .  S
C2175      C2176   1.402       .  A
C2175      S2179   1.797       .  S
C2176      C2177   1.410       .  A
C2177      C2178   1.392       .  A
C2177      H2184   1.083       .  S
C2178      S2180   1.810       .  S
S2179      H2182   1.409       .  S
S2180      H2181   1.406       .  S
C2185      C2186   1.404       .  A
C2185      C2190   1.406       .  A
C2186      C2187   1.388       .  A
C2186      H2195   1.083       .  S
C2187      C2188   1.412       .  A
C2187      S2191   1.811       .  S
C2188      C2189   1.406       .  A
C2189      C2190   1.396       .  A
C2189      H2196   1.084       .  S
C2190      S2192   1.808       .  S
S2191      H2194   1.407       .  S
S2192      H2193   1.407   1_655  S
C2197      C2198   1.404       .  A
C2197      C2202   1.411       .  A
C2198      C2199   1.390       .  A
C2198      H2207   1.084       .  S
C2199      C2200   1.410       .  A
C2199      S2203   1.800       .  S
C2200      C2201   1.403       .  A
C2201      C2202   1.390       .  A
C2201      H2208   1.084       .  S
C2202      S2204   1.804       .  S
S2203      H2206   1.408       .  S
S2204      H2205   1.407       .  S
C2209      C2210   1.429       .  A
C2209      C2214   1.411       .  A
C2210      C2211   1.429       .  A
C2210      H2219   1.083       .  S
C2211      C2212   1.415       .  A
C2211      S2215   1.797       .  S
C2212      C2213   1.428       .  A
C2213      C2214   1.421       .  A
C2213      H2220   1.081       .  S
C2214      S2216   1.798       .  S
S2215      H2218   1.407       .  S
S2216      H2217   1.406       .  S
C2221      C2222   1.409       .  A
C2221      C2226   1.424       .  A
C2222      C2223   1.426       .  A
C2222      H2231   1.083       .  S
C2223      C2224   1.425       .  A
C2223      S2227   1.806       .  S
C2224      C2225   1.409       .  A
C2225      C2226   1.422       .  A
C2225      H2232   1.083       .  S
C2226      S2228   1.802       .  S
S2227      H2230   1.407       .  S
S2228      H2229   1.407       .  S
C2233      C2234   1.406       .  A
C2233      C2238   1.416       .  A
C2234      C2235   1.388       .  A
C2234      H2243   1.084       .  S
C2235      C2236   1.408       .  A
C2235      S2239   1.798       .  S
C2236      C2237   1.404       .  A
C2237      C2238   1.396       .  A
C2237      H2244   1.084       .  S
C2238      S2240   1.807       .  S
S2239      H2242   1.410       .  S
S2240      H2241   1.408       .  S
C2245      C2246   1.406       .  A
C2245      C2250   1.402       .  A
C2246      C2247   1.393       .  A
C2246      H2255   1.083       .  S
C2247      C2248   1.413       .  A
C2247      S2251   1.810       .  S
C2248      C2249   1.406       .  A
C2249      C2250   1.390       .  A
C2249      H2256   1.083       .  S
C2250      S2252   1.797       .  S
S2251      H2254   1.407       .  S
S2252      H2253   1.408       .  S
C2257      C2258   1.413       .  A
C2257      C2262   1.418   1_455  A
C2258      C2259   1.419       .  A
C2258      H2267   1.084       .  S
C2259      C2260   1.419   1_455  A
C2259      S2263   1.798       .  S
C2260      C2261   1.413       .  A
C2261      C2262   1.416       .  A
C2261      H2268   1.084       .  S
C2262      S2264   1.800       .  S
S2263      H2266   1.405       .  S
S2264      H2265   1.404       .  S
C2269      C2270   1.399       .  A
C2269      C2274   1.407       .  A
C2270      C2271   1.388       .  A
C2270      H2279   1.084       .  S
C2271      C2272   1.411       .  A
C2271      S2275   1.801       .  S
C2272      C2273   1.401       .  A
C2273      C2274   1.391       .  A
C2273      H2280   1.083       .  S
C2274      S2276   1.804       .  S
S2275      H2278   1.407       .  S
S2276      H2277   1.407       .  S
C2281      C2282   1.403       .  A
C2281      C2286   1.408       .  A
C2282      C2283   1.389       .  A
C2282      H2291   1.084       .  S
C2283      C2284   1.411       .  A
C2283      S2287   1.802       .  S
C2284      C2285   1.404       .  A
C2285      C2286   1.390       .  A
C2285      H2292   1.084   1_655  S
C2286      S2288   1.799       .  S
S2287      H2290   1.407       .  S
S2288      H2289   1.407       .  S
C2293      C2294   1.433       .  A
C2293      C2298   1.415       .  A
C2294      C2295   1.433       .  A
C2294      H2303   1.082       .  S
C2295      C2296   1.412       .  A
C2295      S2299   1.804       .  S
C2296      C2297   1.427       .  A
C2297      C2298   1.425       .  A
C2297      H2304   1.082       .  S
C2298      S2300   1.797       .  S
S2299      H2302   1.407       .  S
S2300      H2301   1.406       .  S
C2305      C2306   1.428       .  A
C2305      C2310   1.415       .  A
C2306      C2307   1.424       .  A
C2306      H2315   1.079       .  S
C2307      C2308   1.412       .  A
C2307      S2311   1.806       .  S
C2308      C2309   1.429       .  A
C2309      C2310   1.426       .  A
C2309      H2316   1.083       .  S
C2310      S2312   1.797       .  S
S2311      H2314   1.407       .  S
S2312      H2313   1.406       .  S
C2317      C2318   1.406       .  A
C2317      C2322   1.422       .  A
C2318      C2319   1.416       .  A
C2318      H2327   1.084       .  S
C2319      C2320   1.422       .  A
C2319      S2323   1.803       .  S
C2320      C2321   1.406       .  A
C2321      C2322   1.419       .  A
C2321      H2328   1.083       .  S
C2322      S2324   1.807       .  S
S2323      H2326   1.406       .  S
S2324      H2325   1.407       .  S
C2329      C2330   1.413   1_655  A
C2329      C2334   1.416       .  A
C2330      C2331   1.421       .  A
C2330      H2339   1.083       .  S
C2331      C2332   1.415       .  A
C2331      S2335   1.805       .  S
C2332      C2333   1.414       .  A
C2333      C2334   1.422   1_455  A
C2333      H2340   1.082       .  S
C2334      S2336   1.805       .  S
S2335      H2338   1.407       .  S
S2336      H2337   1.406       .  S
C2341      C2342   1.429       .  A
C2341      C2346   1.415       .  A
C2342      C2343   1.426       .  A
C2342      H2351   1.083       .  S
C2343      C2344   1.415       .  A
C2343      S2347   1.798       .  S
C2344      C2345   1.428       .  A
C2345      C2346   1.425       .  A
C2345      H2352   1.083       .  S
C2346      S2348   1.797       .  S
S2347      H2350   1.406       .  S
S2348      H2349   1.406       .  S
C2353      C2354   1.402       .  A
C2353      C2358   1.413       .  A
C2354      C2355   1.391       .  A
C2354      H2363   1.083       .  S
C2355      C2356   1.410       .  A
C2355      S2359   1.799       .  S
C2356      C2357   1.402       .  A
C2357      C2358   1.394       .  A
C2357      H2364   1.083       .  S
C2358      S2360   1.808       .  S
S2359      H2362   1.408       .  S
S2360      H2361   1.407       .  S
C2365      C2366   1.403       .  A
C2365      C2370   1.396       .  A
C2366      C2367   1.393       .  A
C2366      H2375   1.083       .  S
C2367      C2368   1.417       .  A
C2367      S2371   1.810       .  S
C2368      C2369   1.406       .  A
C2369      C2370   1.394       .  A
C2369      H2376   1.083       .  S
C2370      S2372   1.793       .  S
S2371      H2374   1.407       .  S
S2372      H2373   1.408       .  S
C2377      C2378   1.401       .  A
C2377      C2382   1.405       .  A
C2378      C2379   1.394       .  A
C2378      H2387   1.083       .  S
C2379      C2380   1.412       .  A
C2379      S2383   1.807       .  S
C2380      C2381   1.403       .  A
C2381      C2382   1.394       .  A
C2381      H2388   1.081       .  S
C2382      S2384   1.803       .  S
S2383      H2386   1.407       .  S
S2384      H2385   1.401       .  S
C2389      C2390   1.409       .  A
C2389      C2394   1.411       .  A
C2390      C2391   1.390       .  A
C2390      H2399   1.084       .  S
C2391      C2392   1.402       .  A
C2391      S2395   1.801       .  S
C2392      C2393   1.404       .  A
C2393      C2394   1.392       .  A
C2393      H2400   1.083       .  S
C2394      S2396   1.807       .  S
S2395      H2398   1.408       .  S
S2396      H2397   1.407       .  S
C2401      C2402   1.432       .  A
C2401      C2406   1.414       .  A
C2402      C2403   1.424       .  A
C2402      H2411   1.081       .  S
C2403      C2404   1.412       .  A
C2403      S2407   1.799       .  S
C2404      C2405   1.430       .  A
C2405      C2406   1.427       .  A
C2405      H2412   1.083       .  S
C2406      S2408   1.796       .  S
S2407      H2410   1.406       .  S
S2408      H2409   1.406       .  S
C2413      C2414   1.410   1_655  A
C2413      C2418   1.421       .  A
C2414      C2415   1.421       .  A
C2414      H2423   1.083       .  S
C2415      C2416   1.420       .  A
C2415      S2419   1.802       .  S
C2416      C2417   1.406       .  A
C2417      C2418   1.417   1_455  A
C2417      H2424   1.083   1_455  S
C2418      S2420   1.808       .  S
S2419      H2422   1.406       .  S
S2420      H2421   1.407       .  S
C2425      C2426   1.409       .  A
C2425      C2430   1.405       .  A
C2426      C2427   1.392       .  A
C2426      H2435   1.083       .  S
C2427      C2428   1.408       .  A
C2427      S2431   1.808       .  S
C2428      C2429   1.403       .  A
C2429      C2430   1.390       .  A
C2429      H2436   1.084       .  S
C2430      S2432   1.795       .  S
S2431      H2434   1.407       .  S
S2432      H2433   1.407       .  S
C2437      C2438   1.405       .  A
C2437      C2442   1.412       .  A
C2438      C2439   1.396       .  A
C2438      H2447   1.083       .  S
C2439      C2440   1.414       .  A
C2439      S2443   1.810       .  S
C2440      C2441   1.404       .  A
C2441      C2442   1.397       .  A
C2441      H2448   1.083       .  S
C2442      S2444   1.806       .  S
S2443      H2446   1.406       .  S
S2444      H2445   1.407       .  S
C2449      C2450   1.405       .  A
C2449      C2454   1.414       .  A
C2450      C2451   1.398       .  A
C2450      H2459   1.084       .  S
C2451      C2452   1.408       .  A
C2451      S2455   1.801       .  S
C2452      C2453   1.403       .  A
C2453      C2454   1.391       .  A
C2453      H2460   1.083       .  S
C2454      S2456   1.809       .  S
S2455      H2458   1.408       .  S
S2456      H2457   1.408       .  S
C2461      C2462   1.410       .  A
C2461      C2466   1.421       .  A
C2462      C2463   1.423       .  A
C2462      H2471   1.083       .  S
C2463      C2464   1.421       .  A
C2463      S2467   1.805       .  S
C2464      C2465   1.409       .  A
C2465      C2466   1.419       .  A
C2465      H2472   1.083       .  S
C2466      S2468   1.802       .  S
S2467      H2470   1.407       .  S
S2468      H2469   1.407       .  S
C2473      C2474   1.400       .  A
C2473      C2478   1.408       .  A
C2474      C2475   1.392       .  A
C2474      H2483   1.083       .  S
C2475      C2476   1.412       .  A
C2475      S2479   1.805       .  S
C2476      C2477   1.401       .  A
C2477      C2478   1.388       .  A
C2477      H2484   1.084       .  S
C2478      S2480   1.801       .  S
S2479      H2482   1.405       .  S
S2480      H2481   1.409       .  S
C2485      C2486   1.429       .  A
C2485      C2490   1.414       .  A
C2486      C2487   1.423       .  A
C2486      H2495   1.083       .  S
C2487      C2488   1.413       .  A
C2487      S2491   1.797       .  S
C2488      C2489   1.429       .  A
C2489      C2490   1.425       .  A
C2489      H2496   1.083       .  S
C2490      S2492   1.798       .  S
S2491      H2494   1.407       .  S
S2492      H2493   1.407       .  S
C2497      C2498   1.407   1_655  A
C2497      C2502   1.418   1_556  A
C2498      C2499   1.412       .  A
C2498      H2507   1.081       .  S
C2499      C2500   1.416   1_556  A
C2499      S2503   1.806       .  S
C2500      C2501   1.408       .  A
C2501      C2502   1.409   1_455  A
C2501      H2508   1.082       .  S
C2502      S2504   1.809       .  S
S2503      H2506   1.407       .  S
S2504      H2505   1.407       .  S
C2509      C2510   1.406       .  A
C2509      C2514   1.417   1_554  A
C2510      C2511   1.411       .  A
C2510      H2519   1.084       .  S
C2511      C2512   1.417   1_554  A
C2511      S2515   1.801       .  S
C2512      C2513   1.407       .  A
C2513      C2514   1.409       .  A
C2513      H2520   1.084       .  S
C2514      S2516   1.803       .  S
S2515      H2518   1.404   1_554  S
S2516      H2517   1.404   1_556  S
C2521      C2522   1.406       .  A
C2521      C2526   1.416       .  A
C2522      C2523   1.405       .  A
C2522      H2531   1.084       .  S
C2523      C2524   1.419       .  A
C2523      S2527   1.804       .  S
C2524      C2525   1.408       .  A
C2525      C2526   1.413       .  A
C2525      H2532   1.082       .  S
C2526      S2528   1.806       .  S
S2527      H2530   1.407       .  S
S2528      H2529   1.407       .  S
C2533      C2534   1.409       .  A
C2533      C2538   1.416       .  A
C2534      C2535   1.414       .  A
C2534      H2543   1.084       .  S
C2535      C2536   1.417       .  A
C2535      S2539   1.804       .  S
C2536      C2537   1.404       .  A
C2537      C2538   1.408       .  A
C2537      H2544   1.084       .  S
C2538      S2540   1.802       .  S
S2539      H2542   1.407       .  S
S2540      H2541   1.406       .  S
C2545      C2546   1.431       .  A
C2545      C2550   1.416       .  A
C2546      C2547   1.419       .  A
C2546      H2555   1.080       .  S
C2547      C2548   1.409       .  A
C2547      S2551   1.799       .  S
C2548      C2549   1.427       .  A
C2549      C2550   1.425       .  A
C2549      H2556   1.083       .  S
C2550      S2552   1.797       .  S
S2551      H2554   1.406       .  S
S2552      H2553   1.407       .  S
C2557      C2558   1.415   1_546  A
C2557      C2562   1.417       .  A
C2558      C2559   1.415       .  A
C2558      H2567   1.082       .  S
C2559      C2560   1.419   1_565  A
C2559      S2563   1.807       .  S
C2560      C2561   1.413   1_554  A
C2561      C2562   1.405       .  A
C2561      H2568   1.083       .  S
C2562      S2564   1.800       .  S
S2563      H2566   1.406       .  S
S2564      H2565   1.407       .  S
C2569      C2570   1.407   1_554  A
C2569      C2574   1.413       .  A
C2570      C2571   1.412       .  A
C2570      H2579   1.083       .  S
C2571      C2572   1.412       .  A
C2571      S2575   1.806       .  S
C2572      C2573   1.407   1_556  A
C2573      C2574   1.408       .  A
C2573      H2580   1.084       .  S
C2574      S2576   1.803       .  S
S2575      H2578   1.407       .  S
S2576      H2577   1.407       .  S
C2581      C2582   1.402       .  A
C2581      C2586   1.408       .  A
C2582      C2583   1.393       .  A
C2582      H2591   1.083       .  S
C2583      C2584   1.411       .  A
C2583      S2587   1.806       .  S
C2584      C2585   1.402       .  A
C2585      C2586   1.392       .  A
C2585      H2592   1.084       .  S
C2586      S2588   1.796       .  S
S2587      H2590   1.407       .  S
S2588      H2589   1.408       .  S
C2593      C2594   1.407       .  A
C2593      C2598   1.418       .  A
C2594      C2595   1.411       .  A
C2594      H2603   1.083       .  S
C2595      C2596   1.420       .  A
C2595      S2599   1.803       .  S
C2596      C2597   1.406       .  A
C2597      C2598   1.404       .  A
C2597      H2604   1.083       .  S
C2598      S2600   1.804       .  S
S2599      H2602   1.407       .  S
S2600      H2601   1.408       .  S
C2605      C2606   1.404   1_565  A
C2605      C2610   1.417       .  A
C2606      C2607   1.413       .  A
C2606      H2615   1.083       .  S
C2607      C2608   1.416       .  A
C2607      S2611   1.807       .  S
C2608      C2609   1.404       .  A
C2609      C2610   1.406   1_545  A
C2609      H2616   1.084   1_545  S
C2610      S2612   1.802       .  S
S2611      H2614   1.407       .  S
S2612      H2613   1.405       .  S
C2617      C2618   1.407       .  A
C2617      C2622   1.411       .  A
C2618      C2619   1.392       .  A
C2618      H2627   1.084       .  S
C2619      C2620   1.405       .  A
C2619      S2623   1.803       .  S
C2620      C2621   1.404       .  A
C2621      C2622   1.391       .  A
C2621      H2628   1.083       .  S
C2622      S2624   1.808       .  S
S2623      H2626   1.408       .  S
S2624      H2625   1.407       .  S
C2629      C2630   1.431       .  A
C2629      C2634   1.413       .  A
C2630      C2631   1.427       .  A
C2630      H2639   1.083       .  S
C2631      C2632   1.414       .  A
C2631      S2635   1.799       .  S
C2632      C2633   1.430       .  A
C2633      C2634   1.423       .  A
C2633      H2640   1.082   1_565  S
C2634      S2636   1.797       .  S
S2635      H2638   1.406       .  S
S2636      H2637   1.406       .  S
C2641      C2642   1.407       .  A
C2641      C2646   1.421       .  A
C2642      C2643   1.409       .  A
C2642      H2651   1.084       .  S
C2643      C2644   1.423       .  A
C2643      S2647   1.805       .  S
C2644      C2645   1.406       .  A
C2645      C2646   1.409       .  A
C2645      H2652   1.083       .  S
C2646      S2648   1.802       .  S
S2647      H2650   1.407       .  S
S2648      H2649   1.407       .  S
C2653      C2654   1.404       .  A
C2653      C2658   1.416       .  A
C2654      C2655   1.406       .  A
C2654      H2663   1.084       .  S
C2655      C2656   1.416   1_545  A
C2655      S2659   1.802       .  S
C2656      C2657   1.405       .  A
C2657      C2658   1.409   1_565  A
C2657      H2664   1.084       .  S
C2658      S2660   1.804   1_545  S
S2659      H2662   1.406       .  S
S2660      H2661   1.406   1_565  S
C2665      C2666   1.414       .  A
C2665      C2670   1.418       .  A
C2666      C2667   1.422       .  A
C2666      H2675   1.083       .  S
C2667      C2668   1.420       .  A
C2667      S2671   1.802       .  S
C2668      C2669   1.414       .  A
C2669      C2670   1.419       .  A
C2669      H2676   1.084       .  S
C2670      S2672   1.799       .  S
S2671      H2674   1.404       .  S
S2672      H2673   1.405       .  S
C2677      C2678   1.407       .  A
C2677      C2682   1.406       .  A
C2678      C2679   1.389       .  A
C2678      H2687   1.083       .  S
C2679      C2680   1.408       .  A
C2679      S2683   1.809       .  S
C2680      C2681   1.408       .  A
C2681      C2682   1.397       .  A
C2681      H2688   1.083       .  S
C2682      S2684   1.808       .  S
S2683      H2686   1.407       .  S
S2684      H2685   1.407       .  S
C2689      C2690   1.408   1_545  A
C2689      C2694   1.421   1_556  A
C2690      C2691   1.409   1_455  A
C2690      H2699   1.083       .  S
C2691      C2692   1.418   1_566  A
C2691      S2695   1.802       .  S
C2692      C2693   1.406   1_655  A
C2693      C2694   1.405       .  A
C2693      H2700   1.084       .  S
C2694      S2696   1.804       .  S
S2695      H2698   1.406       .  S
S2696      H2697   1.407       .  S
C2701      C2702   1.406       .  A
C2701      C2706   1.419   1_554  A
C2702      C2703   1.407       .  A
C2702      H2711   1.084       .  S
C2703      C2704   1.414   1_554  A
C2703      S2707   1.803       .  S
C2704      C2705   1.409       .  A
C2705      C2706   1.416       .  A
C2705      H2712   1.084       .  S
C2706      S2708   1.803       .  S
S2707      H2710   1.406   1_554  S
S2708      H2709   1.406   1_556  S
C2713      C2714   1.403       .  A
C2713      C2718   1.412       .  A
C2714      C2715   1.395       .  A
C2714      H2723   1.083       .  S
C2715      C2716   1.406       .  A
C2715      S2719   1.799       .  S
C2716      C2717   1.400       .  A
C2717      C2718   1.388       .  A
C2717      H2724   1.083       .  S
C2718      S2720   1.803       .  S
S2719      H2722   1.407       .  S
S2720      H2721   1.407       .  S
C2725      C2726   1.428       .  A
C2725      C2730   1.411       .  A
C2726      C2727   1.433       .  A
C2726      H2735   1.082       .  S
C2727      C2728   1.418       .  A
C2727      S2731   1.803       .  S
C2728      C2729   1.429       .  A
C2729      C2730   1.425       .  A
C2729      H2736   1.077       .  S
C2730      S2732   1.806       .  S
S2731      H2734   1.407       .  S
S2732      H2733   1.406       .  S
C2737      C2738   1.410   1_455  A
C2737      C2742   1.419       .  A
C2738      C2739   1.412   1_655  A
C2738      H2747   1.084       .  S
C2739      C2740   1.418       .  A
C2739      S2743   1.802   1_455  S
C2740      C2741   1.411       .  A
C2741      C2742   1.418       .  A
C2741      H2748   1.084       .  S
C2742      S2744   1.802       .  S
S2743      H2746   1.401       .  S
S2744      H2745   1.405       .  S
C2749      C2750   1.413   1_556  A
C2749      C2754   1.419       .  A
C2750      C2751   1.411       .  A
C2750      H2759   1.084       .  S
C2751      C2752   1.418       .  A
C2751      S2755   1.797       .  S
C2752      C2753   1.415   1_554  A
C2753      C2754   1.410       .  A
C2753      H2760   1.082       .  S
C2754      S2756   1.808       .  S
S2755      H2758   1.407       .  S
S2756      H2757   1.407       .  S
C2761      C2762   1.408   1_554  A
C2761      C2766   1.413       .  A
C2762      C2763   1.412       .  A
C2762      H2771   1.083       .  S
C2763      C2764   1.411       .  A
C2763      S2767   1.805       .  S
C2764      C2765   1.407   1_556  A
C2765      C2766   1.407       .  A
C2765      H2772   1.084       .  S
C2766      S2768   1.802       .  S
S2767      H2770   1.407       .  S
S2768      H2769   1.407       .  S
C2773      C2774   1.408       .  A
C2773      C2778   1.422       .  A
C2774      C2775   1.420       .  A
C2774      H2783   1.083       .  S
C2775      C2776   1.420       .  A
C2775      S2779   1.805       .  S
C2776      C2777   1.408       .  A
C2777      C2778   1.418       .  A
C2777      H2784   1.084       .  S
C2778      S2780   1.803       .  S
S2779      H2782   1.407       .  S
S2780      H2781   1.406       .  S
C2785      C2786   1.399       .  A
C2785      C2790   1.410       .  A
C2786      C2787   1.394       .  A
C2786      H2795   1.082       .  S
C2787      C2788   1.410       .  A
C2787      S2791   1.802       .  S
C2788      C2789   1.400       .  A
C2789      C2790   1.393       .  A
C2789      H2796   1.083       .  S
C2790      S2792   1.806       .  S
S2791      H2794   1.406       .  S
S2792      H2793   1.407       .  S
C2797      C2798   1.402       .  A
C2797      C2802   1.411       .  A
C2798      C2799   1.393       .  A
C2798      H2807   1.082       .  S
C2799      C2800   1.411       .  A
C2799      S2803   1.809       .  S
C2800      C2801   1.401       .  A
C2801      C2802   1.388       .  A
C2801      H2808   1.084       .  S
C2802      S2804   1.799       .  S
S2803      H2806   1.407       .  S
S2804      H2805   1.407       .  S
C2809      C2810   1.414       .  A
C2809      C2814   1.417       .  A
C2810      C2811   1.407       .  A
C2810      H2819   1.081       .  S
C2811      C2812   1.418       .  A
C2811      S2815   1.810       .  S
C2812      C2813   1.415       .  A
C2813      C2814   1.409       .  A
C2813      H2820   1.083       .  S
C2814      S2816   1.800       .  S
S2815      H2818   1.407       .  S
S2816      H2817   1.407       .  S
C2821      C2822   1.407       .  A
C2821      C2826   1.415       .  A
C2822      C2823   1.407       .  A
C2822      H2831   1.084       .  S
C2823      C2824   1.413       .  A
C2823      S2827   1.803       .  S
C2824      C2825   1.409       .  A
C2825      C2826   1.411       .  A
C2825      H2832   1.084       .  S
C2826      S2828   1.805       .  S
S2827      H2830   1.407       .  S
S2828      H2829   1.405       .  S
C2833      C2834   1.413   1_655  A
C2833      C2838   1.417       .  A
C2834      C2835   1.419       .  A
C2834      H2843   1.083       .  S
C2835      C2836   1.414       .  A
C2835      S2839   1.806       .  S
C2836      C2837   1.410       .  A
C2837      C2838   1.413   1_455  A
C2837      H2844   1.084       .  S
C2838      S2840   1.799       .  S
S2839      H2842   1.407       .  S
S2840      H2841   1.405       .  S
C2845      C2846   1.403       .  A
C2845      C2850   1.408       .  A
C2846      C2847   1.394       .  A
C2846      H2855   1.082       .  S
C2847      C2848   1.409       .  A
C2847      S2851   1.808       .  S
C2848      C2849   1.401       .  A
C2849      C2850   1.385       .  A
C2849      H2856   1.084   1_655  S
C2850      S2852   1.798       .  S
S2851      H2854   1.407       .  S
S2852      H2853   1.407       .  S
C2857      C2858   1.398       .  A
C2857      C2862   1.412       .  A
C2858      C2859   1.390       .  A
C2858      H2867   1.082       .  S
C2859      C2860   1.412       .  A
C2859      S2863   1.802   1_655  S
C2860      C2861   1.400       .  A
C2861      C2862   1.392       .  A
C2861      H2868   1.083       .  S
C2862      S2864   1.808       .  S
S2863      H2866   1.408       .  S
S2864      H2865   1.407       .  S
C2869      C2870   1.432       .  A
C2869      C2874   1.415       .  A
C2870      C2871   1.428       .  A
C2870      H2879   1.083       .  S
C2871      C2872   1.416       .  A
C2871      S2875   1.800       .  S
C2872      C2873   1.428       .  A
C2873      C2874   1.426       .  A
C2873      H2880   1.083       .  S
C2874      S2876   1.796       .  S
S2875      H2878   1.406       .  S
S2876      H2877   1.407       .  S
C2881      C2882   1.414       .  A
C2881      C2886   1.416       .  A
C2882      C2883   1.412       .  A
C2882      H2891   1.082       .  S
C2883      C2884   1.417       .  A
C2883      S2887   1.809       .  S
C2884      C2885   1.413       .  A
C2885      C2886   1.407       .  A
C2885      H2892   1.083       .  S
C2886      S2888   1.799       .  S
S2887      H2890   1.406       .  S
S2888      H2889   1.408       .  S
C2893      C2894   1.404       .  A
C2893      C2898   1.419       .  A
C2894      C2895   1.412       .  A
C2894      H2903   1.083       .  S
C2895      C2896   1.416       .  A
C2895      S2899   1.806       .  S
C2896      C2897   1.403       .  A
C2897      C2898   1.409       .  A
C2897      H2904   1.084       .  S
C2898      S2900   1.802       .  S
S2899      H2902   1.407       .  S
S2900      H2901   1.405       .  S
C2905      C2906   1.416   1_655  A
C2905      C2910   1.419   1_655  A
C2906      C2907   1.406       .  A
C2906      H2915   1.082   1_455  S
C2907      C2908   1.414       .  A
C2907      S2911   1.800       .  S
C2908      C2909   1.419       .  A
C2909      C2910   1.417       .  A
C2909      H2916   1.083       .  S
C2910      S2912   1.798       .  S
S2911      H2914   1.408       .  S
S2912      H2913   1.407   1_455  S
C2917      C2918   1.403       .  A
C2917      C2922   1.416       .  A
C2918      C2919   1.408       .  A
C2918      H2927   1.083       .  S
C2919      C2920   1.414       .  A
C2919      S2923   1.807       .  S
C2920      C2921   1.404       .  A
C2921      C2922   1.411       .  A
C2921      H2928   1.083       .  S
C2922      S2924   1.807       .  S
S2923      H2926   1.407       .  S
S2924      H2925   1.407       .  S
C2929      C2930   1.431       .  A
C2929      C2934   1.417       .  A
C2930      C2931   1.425       .  A
C2930      H2939   1.082       .  S
C2931      C2932   1.414       .  A
C2931      S2935   1.797       .  S
C2932      C2933   1.431       .  A
C2933      C2934   1.431       .  A
C2933      H2940   1.083       .  S
C2934      S2936   1.799       .  S
S2935      H2938   1.406       .  S
S2936      H2937   1.406       .  S
C2941      C2942   1.414       .  A
C2941      C2946   1.417       .  A
C2942      C2943   1.408       .  A
C2942      H2951   1.083       .  S
C2943      C2944   1.417       .  A
C2943      S2947   1.805       .  S
C2944      C2945   1.415       .  A
C2945      C2946   1.415       .  A
C2945      H2952   1.082       .  S
C2946      S2948   1.806       .  S
S2947      H2950   1.408       .  S
S2948      H2949   1.406       .  S
C2953      C2954   1.404       .  A
C2953      C2958   1.414   1_565  A
C2954      C2955   1.406       .  A
C2954      H2963   1.084       .  S
C2955      C2956   1.416   1_565  A
C2955      S2959   1.803       .  S
C2956      C2957   1.406       .  A
C2957      C2958   1.409       .  A
C2957      H2964   1.084       .  S
C2958      S2960   1.802       .  S
S2959      H2962   1.406   1_565  S
S2960      H2961   1.407       .  S
C2965      C2966   1.402       .  A
C2965      C2970   1.411       .  A
C2966      C2967   1.395       .  A
C2966      H2975   1.083       .  S
C2967      C2968   1.414       .  A
C2967      S2971   1.807       .  S
C2968      C2969   1.404       .  A
C2969      C2970   1.394       .  A
C2969      H2976   1.083       .  S
C2970      S2972   1.803       .  S
S2971      H2974   1.407       .  S
S2972      H2973   1.407   1_655  S
C2977      C2978   1.414   1_545  A
C2977      C2982   1.417       .  A
C2978      C2979   1.409       .  A
C2978      H2987   1.082       .  S
C2979      C2980   1.418   1_565  A
C2979      S2983   1.808       .  S
C2980      C2981   1.415       .  A
C2981      C2982   1.417       .  A
C2981      H2988   1.082       .  S
C2982      S2984   1.805       .  S
S2983      H2986   1.407       .  S
S2984      H2985   1.407       .  S
C2989      C2990   1.404       .  A
C2989      C2994   1.412       .  A
C2990      C2991   1.407       .  A
C2990      H2999   1.084       .  S
C2991      C2992   1.415       .  A
C2991      S2995   1.803       .  S
C2992      C2993   1.408       .  A
C2993      C2994   1.415       .  A
C2993      H3000   1.083       .  S
C2994      S2996   1.805       .  S
S2995      H2998   1.407       .  S
S2996      H2997   1.407       .  S
C3001      C3002   1.399       .  A
C3001      C3006   1.413       .  A
C3002      C3003   1.393       .  A
C3002      H3011   1.083       .  S
C3003      C3004   1.412       .  A
C3003      S3007   1.799       .  S
C3004      C3005   1.399       .  A
C3005      C3006   1.390       .  A
C3005      H3012   1.084       .  S
C3006      S3008   1.801       .  S
S3007      H3010   1.408       .  S
S3008      H3009   1.408       .  S
C3013      C3014   1.428       .  A
C3013      C3018   1.410       .  A
C3014      C3015   1.423       .  A
C3014      H3023   1.082       .  S
C3015      C3016   1.413       .  A
C3015      S3019   1.797       .  S
C3016      C3017   1.431       .  A
C3017      C3018   1.428       .  A
C3017      H3024   1.081       .  S
C3018      S3020   1.804       .  S
S3019      H3022   1.406       .  S
S3020      H3021   1.407       .  S
C3025      C3026   1.407       .  A
C3025      C3030   1.422       .  A
C3026      C3027   1.408       .  A
C3026      H3035   1.083       .  S
C3027      C3028   1.420       .  A
C3027      S3031   1.804       .  S
C3028      C3029   1.406       .  A
C3029      C3030   1.411       .  A
C3029      H3036   1.083       .  S
C3030      S3032   1.799       .  S
S3031      H3034   1.408       .  S
S3032      H3033   1.403       .  S
C3037      C3038   1.405       .  A
C3037      C3042   1.418       .  A
C3038      C3039   1.402       .  A
C3038      H3047   1.084       .  S
C3039      C3040   1.411       .  A
C3039      S3043   1.804       .  S
C3040      C3041   1.406       .  A
C3041      C3042   1.412       .  A
C3041      H3048   1.084       .  S
C3042      S3044   1.800       .  S
S3043      H3046   1.406       .  S
S3044      H3045   1.405       .  S
C3049      C3050   1.412   1_655  A
C3049      C3054   1.414       .  A
C3050      C3051   1.417       .  A
C3050      H3059   1.084       .  S
C3051      C3052   1.419       .  A
C3051      S3055   1.803       .  S
C3052      C3053   1.411       .  A
C3053      C3054   1.417   1_455  A
C3053      H3060   1.083       .  S
C3054      S3056   1.805       .  S
S3055      H3058   1.405       .  S
S3056      H3057   1.407       .  S
C3061      C3062   1.400       .  A
C3061      C3066   1.410       .  A
C3062      C3063   1.389       .  A
C3062      H3071   1.084       .  S
C3063      C3064   1.413       .  A
C3063      S3067   1.804       .  S
C3064      C3065   1.401       .  A
C3065      C3066   1.392       .  A
C3065      H3072   1.083       .  S
C3066      S3068   1.806       .  S
S3067      H3070   1.407       .  S
S3068      H3069   1.406       .  S
C3073      C3074   1.413       .  A
C3073      C3078   1.415       .  A
C3074      C3075   1.413       .  A
C3074      H3083   1.082       .  S
C3075      C3076   1.418       .  A
C3075      S3079   1.806       .  S
C3076      C3077   1.414       .  A
C3077      C3078   1.410       .  A
C3077      H3084   1.082       .  S
C3078      S3080   1.809       .  S
S3079      H3082   1.407       .  S
S3080      H3081   1.406       .  S
C3085      C3086   1.405       .  A
C3085      C3090   1.414       .  A
C3086      C3087   1.408       .  A
C3086      H3095   1.084       .  S
C3087      C3088   1.416       .  A
C3087      S3091   1.803       .  S
C3088      C3089   1.405       .  A
C3089      C3090   1.404       .  A
C3089      H3096   1.084       .  S
C3090      S3092   1.805       .  S
S3091      H3094   1.403       .  S
S3092      H3093   1.407       .  S
C3097      C3098   1.409       .  A
C3097      C3102   1.425       .  A
C3098      C3099   1.423       .  A
C3098      H3107   1.083       .  S
C3099      C3100   1.425       .  A
C3099      S3103   1.803       .  S
C3100      C3101   1.407       .  A
C3101      C3102   1.422       .  A
C3101      H3108   1.083       .  S
C3102      S3104   1.807       .  S
S3103      H3106   1.406       .  S
S3104      H3105   1.407       .  S
C3109      C3110   1.398       .  A
C3109      C3114   1.413       .  A
C3110      C3111   1.390       .  A
C3110      H3119   1.084       .  S
C3111      C3112   1.412       .  A
C3111      S3115   1.797       .  S
C3112      C3113   1.401       .  A
C3113      C3114   1.392       .  A
C3113      H3120   1.083       .  S
C3114      S3116   1.810       .  S
S3115      H3118   1.407       .  S
S3116      H3117   1.407       .  S
C3121      C3122   1.430       .  A
C3121      C3126   1.416       .  A
C3122      C3123   1.430       .  A
C3122      H3131   1.081       .  S
C3123      C3124   1.412       .  A
C3123      S3127   1.804       .  S
C3124      C3125   1.428       .  A
C3125      C3126   1.428       .  A
C3125      H3132   1.083       .  S
C3126      S3128   1.798       .  S
S3127      H3130   1.407       .  S
S3128      H3129   1.407       .  S
C3133      C3134   1.415       .  A
C3133      C3138   1.417       .  A
C3134      C3135   1.410       .  A
C3134      H3143   1.081       .  S
C3135      C3136   1.417       .  A
C3135      S3139   1.810       .  S
C3136      C3137   1.415       .  A
C3137      C3138   1.413       .  A
C3137      H3144   1.084       .  S
C3138      S3140   1.798       .  S
S3139      H3142   1.406       .  S
S3140      H3141   1.407       .  S
C3145      C3146   1.405   1_565  A
C3145      C3150   1.416       .  A
C3146      C3147   1.407       .  A
C3146      H3155   1.083       .  S
C3147      C3148   1.412       .  A
C3147      S3151   1.806       .  S
C3148      C3149   1.405   1_545  A
C3149      C3150   1.413       .  A
C3149      H3156   1.083       .  S
C3150      S3152   1.807       .  S
S3151      H3154   1.407       .  S
S3152      H3153   1.407       .  S
C3157      C3158   1.408       .  A
C3157      C3162   1.421       .  A
C3158      C3159   1.418       .  A
C3158      H3167   1.083       .  S
C3159      C3160   1.421       .  A
C3159      S3163   1.803       .  S
C3160      C3161   1.405       .  A
C3161      C3162   1.416       .  A
C3161      H3168   1.083       .  S
C3162      S3164   1.806       .  S
S3163      H3166   1.406       .  S
S3164      H3165   1.407       .  S
C3169      C3170   1.400       .  A
C3169      C3174   1.417       .  A
C3170      C3171   1.391       .  A
C3170      H3179   1.084       .  S
C3171      C3172   1.407       .  A
C3171      S3175   1.803       .  S
C3172      C3173   1.390       .  A
C3173      C3174   1.379       .  A
C3173      H3180   1.085       .  S
C3174      S3176   1.816       .  S
S3175      H3178   1.405       .  S
S3176      H3177   1.407       .  S
C3181      C3182   1.401       .  A
C3181      C3186   1.416       .  A
C3182      C3183   1.397       .  A
C3182      H3191   1.083       .  S
C3183      C3184   1.411       .  A
C3183      S3187   1.806       .  S
C3184      C3185   1.395       .  A
C3185      C3186   1.388       .  A
C3185      H3192   1.082       .  S
C3186      S3188   1.801       .  S
S3187      H3190   1.407       .  S
S3188      H3189   1.407       .  S
C3193      C3194   1.406   1_645  A
C3193      C3198   1.420       .  A
C3194      C3195   1.406       .  A
C3194      H3203   1.084       .  S
C3195      C3196   1.422   1_565  A
C3195      S3199   1.804       .  S
C3196      C3197   1.407       .  A
C3197      C3198   1.411   1_455  A
C3197      H3204   1.083       .  S
C3198      S3200   1.803       .  S
S3199      H3202   1.407       .  S
S3200      H3201   1.407       .  S
C3205      C3206   1.404       .  A
C3205      C3210   1.414       .  A
C3206      C3207   1.413       .  A
C3206      H3215   1.083       .  S
C3207      C3208   1.416       .  A
C3207      S3211   1.807       .  S
C3208      C3209   1.405       .  A
C3209      C3210   1.409       .  A
C3209      H3216   1.083       .  S
C3210      S3212   1.807       .  S
S3211      H3214   1.407   1_565  S
S3212      H3213   1.407       .  S
C3217      C3218   1.400       .  A
C3217      C3222   1.403       .  A
C3218      C3219   1.393       .  A
C3218      H3227   1.083       .  S
C3219      C3220   1.415       .  A
C3219      S3223   1.810       .  S
C3220      C3221   1.404       .  A
C3221      C3222   1.390       .  A
C3221      H3228   1.083       .  S
C3222      S3224   1.794       .  S
S3223      H3226   1.407       .  S
S3224      H3225   1.407       .  S
C3229      C3230   1.409       .  A
C3229      C3234   1.419       .  A
C3230      C3231   1.412       .  A
C3230      H3239   1.084       .  S
C3231      C3232   1.418       .  A
C3231      S3235   1.801       .  S
C3232      C3233   1.412   1_455  A
C3233      C3234   1.419   1_655  A
C3233      H3240   1.084       .  S
C3234      S3236   1.799   1_455  S
S3235      H3238   1.403       .  S
S3236      H3237   1.405   1_655  S
C3241      C3242   1.402       .  A
C3241      C3246   1.402       .  A
C3242      C3243   1.392       .  A
C3242      H3251   1.083       .  S
C3243      C3244   1.417       .  A
C3243      S3247   1.809       .  S
C3244      C3245   1.409       .  A
C3245      C3246   1.396       .  A
C3245      H3252   1.083       .  S
C3246      S3248   1.806   1_655  S
S3247      H3250   1.407       .  S
S3248      H3249   1.407   1_455  S
C3253      C3254   1.430       .  A
C3253      C3258   1.411       .  A
C3254      C3255   1.427       .  A
C3254      H3263   1.083       .  S
C3255      C3256   1.414       .  A
C3255      S3259   1.797       .  S
C3256      C3257   1.429       .  A
C3257      C3258   1.423       .  A
C3257      H3264   1.082       .  S
C3258      S3260   1.797       .  S
S3259      H3262   1.406       .  S
S3260      H3261   1.406       .  S
