geometry optimzed in LAMMPS
_audit_creation_date              2020-12-01 
_audit_creation_method            'lammps2cif' 
_symmetry_space_group_name_H-M    'P1' 
_symmetry_Int_Tables_number       1 
_symmetry_cell_setting            triclinic 
loop_ 
_symmetry_equiv_pos_as_xyz 
  x,y,z 
_cell_length_a                    38.16028918 
_cell_length_b                    38.14649888115675 
_cell_length_c                    36.67178149069953 
_cell_angle_alpha                 90.00117214814331 
_cell_angle_beta                  89.99432200940473 
_cell_angle_gamma                 119.97497747264994 
loop_ 
_atom_site_label 
_atom_site_type_symbol 
_atom_site_fract_x 
_atom_site_fract_y 
_atom_site_fract_z 
_atom_site_charge 
O1          O  0.10355311  0.08932048  0.49177766    -0.84000
C2          C  0.05597569  0.17608290  0.56648883     0.95400
O3          O  0.08965267  0.18900660  0.54962499    -0.73100
O4          O  0.14516469  0.17932657  0.51595253    -0.76700
Al5        Al  0.09477392  0.16693612  0.50436676     1.49000
C6          C  0.16016929  0.16620427  0.53770664     0.90700
O7          O  0.06103165  0.09058266  0.58875050    -0.82900
O8          O  0.32958397  0.05391626  0.49743415    -0.76400
Al9        Al  0.08312555  0.09071735  0.54018786     1.90100
O10         O  0.33469603  0.07685115  0.56718003    -0.75500
O11         O  0.34263014  0.12581333  0.47572750    -0.75400
O12         O  0.35552669  0.15069964  0.55155398    -0.81000
O13         O  0.06156821  0.18441864  0.48140342    -0.79200
O14         O  0.06295970  0.11958002  0.52228827    -1.15400
O15         O  0.09894658  0.13941243  0.46248392    -0.74600
C16         C  0.10433705  0.10836687  0.46256306     0.96200
C17         C  0.02394182  0.08083739  0.59362740     0.92600
Al18       Al  0.34442315  0.10325692  0.52263391     1.55600
O19         O  0.13741339  0.13430696  0.55546938    -0.79200
C20         C  0.35978838  0.16332162  0.47005255     0.96700
C21         C  0.33989938  0.02882191  0.50823373     0.91600
O22         O  0.37003112  0.03960975  0.52891918    -0.84500
O23         O  0.10354205  0.32482677  0.67875386    -0.84000
C24         C  0.05597900  0.19049885  0.60404486     0.95400
O25         O  0.08965713  0.21124292  0.62090082    -0.73100
O26         O  0.14517247  0.27643376  0.65455746    -0.76700
Al27       Al  0.09478259  0.23843550  0.66616155     1.49000
C28         C  0.16017384  0.30457263  0.63281730     0.90700
O29         O  0.06103277  0.28105361  0.58178325    -0.82900
O30         O  0.32958264  0.25295100  0.67311052    -0.76400
Al31       Al  0.08311874  0.30300647  0.63034468     1.90100
O32         O  0.33469729  0.23513289  0.60335814    -0.75500
O33         O  0.34262335  0.19409279  0.69480914    -0.75400
O34         O  0.35553021  0.18211085  0.61898670    -0.81000
O35         O  0.06156788  0.18775099  0.68913013    -0.79200
O36         O  0.06296199  0.25398353  0.64824658    -1.15400
O37         O  0.09895795  0.27013882  0.70804699    -0.74600
C38         C  0.10434546  0.30657351  0.70796780     0.96200
C39         C  0.02394562  0.25371868  0.57690798     0.92600
Al40       Al  0.34442423  0.21845010  0.64790578     1.55600
O41         O  0.13741142  0.31371102  0.61505767    -0.79200
C42         C  0.35978213  0.17373648  0.70047882     0.96700
C43         C  0.33989607  0.28835576  0.66231009     0.91600
O44         O  0.37002130  0.30768917  0.64161517    -0.84500
O45         O  0.35536186  0.07299468  0.65845062    -0.84000
C46         C  0.22103782  0.35871639  0.73316461     0.95400
O47         O  0.24178105  0.05907522  0.71630899    -0.73100
O48         O  0.30696637  0.11463260  0.68267757    -0.76700
Al49       Al  0.26899076  0.06423150  0.67104966     1.49000
C50         C  0.33510821  0.12962357  0.70440263     0.90700
O51         O  0.31159475  0.03047232  0.75540260    -0.82900
O52         O  0.28351284  0.29902233  0.66405333    -0.76400
Al53       Al  0.33353866  0.05255538  0.70685047     1.90100
O54         O  0.26571975  0.30410693  0.73383025    -0.75500
O55         O  0.22460784  0.31203200  0.64240921    -0.75400
O56         O  0.21268481  0.32492547  0.71823822    -0.81000
O57         O  0.21832926  0.36436877  0.64806255    -0.79200
O58         O  0.28452879  0.36572983  0.68895377    -1.15400
O59         O  0.30070741  0.06843630  0.62916150    -0.74600
C60         C  0.33712705  0.07381715  0.62923956     0.96200
C61         C  0.28427754  0.32670719  0.76028055     0.92600
Al62       Al  0.24901061  0.31383987  0.68929271     1.55600
O63         O  0.34424421  0.10684740  0.72214491    -0.79200
C64         C  0.20428377  0.32922629  0.63673383     0.96700
C65         C  0.31890557  0.30933772  0.67485512     0.91600
O66         O  0.33821523  0.33944724  0.69557593    -0.84500
O67         O  0.11987927  0.07301541  0.84543619    -0.84000
C68         C  0.20657877  0.35870049  0.77070554     0.95400
O69         O  0.21949849  0.05905134  0.78757396    -0.73100
O70         O  0.20987618  0.11459770  0.82124112    -0.76700
Al71       Al  0.19743238  0.06418346  0.83282739     1.49000
C72         C  0.19676717  0.12961506  0.79948779     0.90700
O73         O  0.12112030  0.03048739  0.74846364    -0.82900
O74         O  0.08443725  0.29900176  0.83979111    -0.76400
Al75       Al  0.12126523  0.05258058  0.79702615     1.90100
O76         O  0.10734456  0.30411214  0.77003083    -0.75500
O77         O  0.15634109  0.31201482  0.86146226    -0.75400
O78         O  0.18116894  0.32490747  0.78562256    -0.81000
O79         O  0.21492099  0.36433401  0.85580955    -0.79200
O80         O  0.15009563  0.36571270  0.81491505    -1.15400
O81         O  0.16993927  0.06838015  0.87471563    -0.74600
C82         C  0.13891626  0.07378752  0.87464603     0.96200
C83         C  0.11135585  0.32671392  0.74358358     0.92600
Al84       Al  0.13375977  0.31382328  0.81456830     1.55600
O85         O  0.16486503  0.10687009  0.78174235    -0.79200
C86         C  0.19383938  0.32920243  0.86714887     0.96700
C87         C  0.05936090  0.30933791  0.82899226     0.91600
O88         O  0.07016183  0.33948312  0.80830181    -0.84500
O89         O  0.29019630  0.32483642  0.82510707    -0.84000
C90         C  0.20352178  0.19048769  0.89984077     0.95400
O91         O  0.19059559  0.21125341  0.88297431    -0.73100
O92         O  0.20018620  0.27641536  0.84932499    -0.76700
Al93       Al  0.21265472  0.23846132  0.83772188     1.49000
C94         C  0.21330626  0.30455000  0.87106595     0.90700
O95         O  0.28896116  0.28107328  0.92207058    -0.82900
O96         O  0.99232426  0.25294558  0.83072636    -0.76400
Al97       Al  0.28881577  0.30301619  0.87351282     1.90100
O98         O  0.30278470  0.23516890  0.90050067    -0.75500
O99         O  0.25374452  0.19402574  0.80908771    -0.75400
O100        O  0.22895944  0.18212858  0.88493262    -0.81000
O101        O  0.19516752  0.18780275  0.81472433    -0.79200
O102        O  0.25999385  0.25399031  0.85562607    -1.15400
O103        O  0.24013673  0.27015879  0.79583105    -0.74600
C104        C  0.27115468  0.30658161  0.79589900     0.96200
C105        C  0.29874162  0.25374037  0.92695013     0.92600
Al106      Al  0.27634888  0.21844524  0.85596989     1.55600
O107        O  0.24521730  0.31371071  0.88879909    -0.79200
C108        C  0.21624446  0.17373310  0.80339782     0.96700
C109        C  0.01739324  0.28835189  0.84152815     0.91600
O110        O  0.00658824  0.30768366  0.86223576    -0.84500
O111        O  0.05470230  0.08932901  0.01209178    -0.84000
C112        C  0.18903617  0.17601480  0.93737078     0.95400
O113        O  0.16828460  0.18895878  0.95423055    -0.73100
O114        O  0.10310850  0.17936118  0.98785803    -0.76700
Al115      Al  0.14106759  0.16690794  0.99948661     1.49000
C116        C  0.07496654  0.16621410  0.96613371     0.90700
O117        O  0.09846791  0.09056741  0.91514424    -0.82900
O118        O  0.12655876  0.05386236  0.00650048    -0.76400
Al119      Al  0.07652616  0.09070836  0.96369398     1.90100
O120        O  0.14433404  0.07671343  0.93671581    -0.75500
O121        O  0.18548679  0.12578326  0.02812120    -0.75400
O122        O  0.19737682  0.15055815  0.95228321    -0.81000
O123        O  0.19171987  0.18438211  0.02248600    -0.79200
O124        O  0.12553714  0.11954544  0.98158592    -1.15400
O125        O  0.10935166  0.13941221  0.04137605    -0.74600
C126        C  0.07293689  0.10838201  0.04130117     0.96200
C127        C  0.12578474  0.08077675  0.91026533     0.92600
Al128      Al  0.16105991  0.10316832  0.98124601     1.55600
O129        O  0.06582135  0.13429651  0.94840192    -0.79200
C130        C  0.20578715  0.16329640  0.03380454     0.96700
C131        C  0.09116609  0.02879116  0.99569675     0.91600
O132        O  0.07185730  0.03959345  0.97496897    -0.84500
O133        O  0.97318883  0.25965483  0.99178217    -0.84000
C134        C  0.02076011  0.17288956  0.06649446     0.95400
O135        O  0.98708646  0.15996792  0.04963344    -0.73100
O136        O  0.26490922  0.16964393  0.01596441    -0.76700
Al137      Al  0.98196954  0.18204015  0.00437511     1.49000
C138        C  0.24989915  0.18276753  0.03771491     0.90700
O139        O  0.01569812  0.25838970  0.08875847    -0.82900
O140        O  0.08049374  0.29506213  0.99743940    -0.76400
Al141      Al  0.99360987  0.25825631  0.04019428     1.90100
O142        O  0.07537058  0.27212170  0.06718546    -0.75500
O143        O  0.06745112  0.22316592  0.97573164    -0.75400
O144        O  0.05454475  0.19827575  0.05155766    -0.81000
O145        O  0.01517786  0.16455987  0.98140741    -0.79200
O146        O  0.01378012  0.22939571  0.02229444    -1.15400
O147        O  0.97779816  0.20956253  0.96249049    -0.74600
C148        C  0.97240344  0.24060569  0.96256795     0.96200
C149        C  0.05278779  0.26813484  0.09363444     0.92600
Al150      Al  0.06565060  0.24571947  0.02263839     1.55600
O151        O  0.27265094  0.21466536  0.05547595    -0.79200
C152        C  0.05029375  0.18565784  0.97005695     0.96700
C153        C  0.07017458  0.32015451  0.00823956     0.91600
O154        O  0.04003844  0.30936418  0.02892519    -0.84500
O155        O  0.97318866  0.02413793  0.17875506    -0.84000
C156        C  0.02075462  0.15846997  0.10404945     0.95400
O157        O  0.98707330  0.13772311  0.12090806    -0.73100
O158        O  0.26488978  0.07252694  0.15456682    -0.76700
Al159      Al  0.98194315  0.11052792  0.16616823     1.49000
C160        C  0.24989369  0.04439157  0.13282459     0.90700
O161        O  0.01570716  0.06791917  0.08178920    -0.82900
O162        O  0.08047496  0.09601600  0.17311556    -0.76400
Al163      Al  0.99361706  0.04596185  0.13034819     1.90100
O164        O  0.07537327  0.11383475  0.10336333    -0.75500
O165        O  0.06743050  0.15487325  0.19481150    -0.75400
O166        O  0.05453441  0.16685624  0.11898763    -0.81000
O167        O  0.01515250  0.16121279  0.18913496    -0.79200
O168        O  0.01376794  0.09498332  0.14825064    -1.15400
O169        O  0.97776630  0.07882264  0.20805151    -0.74600
C170        C  0.97238523  0.04239042  0.20796996     0.96200
C171        C  0.05279428  0.09525503  0.07691398     0.92600
Al172      Al  0.06563803  0.13051741  0.14790894     1.55600
O173        O  0.27266010  0.03525584  0.11506376    -0.79200
C174        C  0.05026978  0.17522810  0.20048223     0.96700
C175        C  0.07016754  0.06061314  0.16231401     0.91600
O176        O  0.04004929  0.04128136  0.14161605    -0.84500
O177        O  0.05469671  0.27598006  0.15845951    -0.84000
C178        C  0.18902329  0.99025053  0.23316791     0.95400
O179        O  0.16827581  0.95655751  0.21631269    -0.73100
O180        O  0.10309295  0.23433354  0.18268558    -0.76700
Al181      Al  0.14106698  0.28473578  0.17105455     1.49000
C182        C  0.07494284  0.21934097  0.20440721     0.90700
O183        O  0.09846036  0.98515741  0.25541004    -0.82900
O184        O  0.12654970  0.04994345  0.16405521    -0.76400
Al185      Al  0.07651676  0.96308007  0.20685910     1.90100
O186        O  0.14432919  0.04485974  0.23383260    -0.75500
O187        O  0.18545997  0.03693569  0.14241404    -0.75400
O188        O  0.19736952  0.02403987  0.21824558    -0.81000
O189        O  0.19173074  0.98459403  0.14806105    -0.79200
O190        O  0.12552883  0.98323727  0.18895951    -1.15400
O191        O  0.10935137  0.28053081  0.12916715    -0.74600
C192        C  0.07293275  0.27515397  0.12924680     0.96200
C193        C  0.12577902  0.02225571  0.26028547     0.92600
Al194      Al  0.16104810  0.03512674  0.18929675     1.55600
O195        O  0.06580140  0.24211593  0.22214790    -0.79200
C196        C  0.20578267  0.01973958  0.13673711     0.96700
C197        C  0.09115673  0.03963172  0.17486138     0.91600
O198        O  0.07184611  0.00952649  0.19558958    -0.84500
O199        O  0.29020314  0.27595490  0.34542890    -0.84000
C200        C  0.20349232  0.99026043  0.27070371     0.95400
O201        O  0.19057772  0.95657791  0.28757188    -0.73100
O202        O  0.20019966  0.23436325  0.32123675    -0.76700
Al203      Al  0.21264127  0.28477574  0.33282478     1.49000
C204        C  0.21331745  0.21934775  0.29948707     0.90700
O205        O  0.28895738  0.98514515  0.24846124    -0.82900
O206        O  0.99229547  0.04995698  0.33979277    -0.76400
Al207      Al  0.28881691  0.96305417  0.29702074     1.90100
O208        O  0.30274038  0.04485446  0.27003270    -0.75500
O209        O  0.25371849  0.03694076  0.36145932    -0.75400
O210        O  0.22890871  0.02405487  0.28561633    -0.81000
O211        O  0.19514236  0.98461736  0.35581235    -0.79200
O212        O  0.25997931  0.98324942  0.31491176    -1.15400
O213        O  0.24013200  0.28057728  0.37471147    -0.74600
C214        C  0.27116082  0.27517810  0.37463984     0.96200
C215        C  0.29871951  0.02225149  0.24358365     0.92600
Al216      Al  0.27631205  0.03513755  0.31456675     1.55600
O217        O  0.24522505  0.24209415  0.28174346    -0.79200
C218        C  0.21621939  0.01975009  0.36714779     0.96700
C219        C  0.01737788  0.03962805  0.32898916     0.91600
O220        O  0.00658485  0.00949076  0.30829061    -0.84500
O221        O  0.11986343  0.02412174  0.32511184    -0.84000
C222        C  0.20654758  0.15847234  0.39984064     0.95400
O223        O  0.21946904  0.13770463  0.38297343    -0.73100
O224        O  0.20987762  0.07253935  0.34932518    -0.76700
Al225      Al  0.19741327  0.11049459  0.33772143     1.49000
C226        C  0.19674991  0.04440070  0.37106376     0.90700
O227        O  0.12110106  0.06788813  0.42206941    -0.82900
O228        O  0.08441794  0.09601714  0.33072278    -0.76400
Al229      Al  0.12124333  0.04594198  0.37351504     1.90100
O230        O  0.10727198  0.11378614  0.40049695    -0.75500
O231        O  0.15633710  0.15493885  0.30908877    -0.75400
O232        O  0.18110386  0.16682823  0.38493695    -0.81000
O233        O  0.21491049  0.16115513  0.31472044    -0.79200
O234        O  0.15007260  0.09496819  0.35562680    -1.15400
O235        O  0.16993318  0.07879651  0.29583268    -0.74600
C236        C  0.13890895  0.04237657  0.29590287     0.96200
C237        C  0.11132272  0.09522265  0.42694726     0.92600
Al238      Al  0.13372063  0.13051490  0.35596967     1.55600
O239        O  0.16483395  0.03523779  0.38879551    -0.79200
C240        C  0.19383798  0.17522917  0.30339712     0.96700
C241        C  0.05934266  0.06061258  0.34152848     0.91600
O242        O  0.07013948  0.04128150  0.36224331    -0.84500
O243        O  0.35537408  0.25965434  0.51208365    -0.84000
C244        C  0.22103832  0.17296084  0.43736655     0.95400
O245        O  0.24179394  0.16001886  0.45422524    -0.73100
O246        O  0.30696585  0.16961354  0.48784817    -0.76700
Al247      Al  0.26900889  0.18207125  0.49948029     1.49000
C248        C  0.33511576  0.18276507  0.46612698     0.90700
O249        O  0.31161399  0.25840798  0.41513534    -0.82900
O250        O  0.28351499  0.29511323  0.50649690    -0.76400
Al251      Al  0.33355410  0.25827176  0.46368509     1.90100
O252        O  0.26575171  0.27227011  0.43671174    -0.75500
O253        O  0.22458208  0.22319057  0.52811629    -0.75400
O254        O  0.21270399  0.19842089  0.45227654    -0.81000
O255        O  0.21835456  0.16459334  0.52248545    -0.79200
O256        O  0.28454071  0.22943328  0.48157960    -1.15400
O257        O  0.30072322  0.20956609  0.54136993    -0.74600
C258        C  0.33713805  0.24059711  0.54129437     0.96200
C259        C  0.28429619  0.26819766  0.41025866     0.92600
Al260      Al  0.24901721  0.24580970  0.48124139     1.55600
O261        O  0.34426644  0.21468551  0.44839666    -0.79200
C262        C  0.20428218  0.18567722  0.53380054     0.96700
C263        C  0.31890874  0.32018605  0.49568996     0.91600
O264        O  0.33821897  0.30938615  0.47495695    -0.84500
O265        O  0.10355312  0.42265381  0.49177767    -0.84000
C266        C  0.05597575  0.50941623  0.56648883     0.95400
O267        O  0.08965266  0.52233990  0.54962497    -0.73100
O268        O  0.14516468  0.51265986  0.51595256    -0.76700
Al269      Al  0.09477392  0.50026944  0.50436676     1.49000
C270        C  0.16016934  0.49953759  0.53770664     0.90700
O271        O  0.06103167  0.42391602  0.58875051    -0.82900
O272        O  0.32958400  0.38724956  0.49743416    -0.76400
Al273      Al  0.08312557  0.42405071  0.54018786     1.90100
O274        O  0.33469602  0.41018444  0.56718002    -0.75500
O275        O  0.34263012  0.45914662  0.47572751    -0.75400
O276        O  0.35552667  0.48403295  0.55155399    -0.81000
O277        O  0.06156822  0.51775194  0.48140343    -0.79200
O278        O  0.06295970  0.45291336  0.52228827    -1.15400
O279        O  0.09894656  0.47274573  0.46248391    -0.74600
C280        C  0.10433703  0.44170018  0.46256305     0.96200
C281        C  0.02394182  0.41417070  0.59362739     0.92600
Al282      Al  0.34442314  0.43659022  0.52263391     1.55600
O283        O  0.13741350  0.46764027  0.55546936    -0.79200
C284        C  0.35978836  0.49665492  0.47005255     0.96700
C285        C  0.33989947  0.36215524  0.50823370     0.91600
O286        O  0.37003118  0.37294310  0.52891918    -0.84500
O287        O  0.10354205  0.65816006  0.67875386    -0.84000
C288        C  0.05597907  0.52383215  0.60404488     0.95400
O289        O  0.08965725  0.54457622  0.62090086    -0.73100
O290        O  0.14517246  0.60976709  0.65455750    -0.76700
Al291      Al  0.09478263  0.57176880  0.66616160     1.49000
C292        C  0.16017382  0.63790593  0.63281730     0.90700
O293        O  0.06103277  0.61438693  0.58178326    -0.82900
O294        O  0.32958273  0.58628443  0.67311051    -0.76400
Al295      Al  0.08311874  0.63633979  0.63034469     1.90100
O296        O  0.33469729  0.56846621  0.60335813    -0.75500
O297        O  0.34262335  0.52742612  0.69480915    -0.75400
O298        O  0.35553018  0.51544415  0.61898672    -0.81000
O299        O  0.06156787  0.52108425  0.68912998    -0.79200
O300        O  0.06296201  0.58731684  0.64824659    -1.15400
O301        O  0.09895791  0.60347211  0.70804704    -0.74600
C302        C  0.10434543  0.63990681  0.70796782     0.96200
C303        C  0.02394558  0.58705199  0.57690799     0.92600
Al304      Al  0.34442423  0.55178344  0.64790579     1.55600
O305        O  0.13741139  0.64704430  0.61505767    -0.79200
C306        C  0.35978214  0.50706982  0.70047885     0.96700
C307        C  0.33989612  0.62168917  0.66231006     0.91600
O308        O  0.37002136  0.64102263  0.64161517    -0.84500
O309        O  0.35536183  0.40632797  0.65845062    -0.84000
C310        C  0.22103781  0.69204969  0.73316461     0.95400
O311        O  0.24178105  0.39240854  0.71630899    -0.73100
O312        O  0.30696638  0.44796599  0.68267756    -0.76700
Al313      Al  0.26899077  0.39756483  0.67104967     1.49000
C314        C  0.33510821  0.46295692  0.70440263     0.90700
O315        O  0.31159476  0.36380566  0.75540259    -0.82900
O316        O  0.28351282  0.63235563  0.66405333    -0.76400
Al317      Al  0.33353864  0.38588869  0.70685046     1.90100
O318        O  0.26571972  0.63744020  0.73383026    -0.75500
O319        O  0.22460782  0.64536529  0.64240921    -0.75400
O320        O  0.21268479  0.65825877  0.71823822    -0.81000
O321        O  0.21832924  0.69770207  0.64806255    -0.79200
O322        O  0.28452877  0.69906313  0.68895377    -1.15400
O323        O  0.30070740  0.40176960  0.62916150    -0.74600
C324        C  0.33712703  0.40715045  0.62923956     0.96200
C325        C  0.28427751  0.66004048  0.76028057     0.92600
Al326      Al  0.24901059  0.64717316  0.68929272     1.55600
O327        O  0.34424418  0.44018071  0.72214489    -0.79200
C328        C  0.20428375  0.66255959  0.63673382     0.96700
C329        C  0.31890557  0.64267106  0.67485511     0.91600
O330        O  0.33821520  0.67278055  0.69557594    -0.84500
O331        O  0.11987924  0.40634869  0.84543620    -0.84000
C332        C  0.20657875  0.69203379  0.77070554     0.95400
O333        O  0.21949849  0.39238466  0.78757396    -0.73100
O334        O  0.20987625  0.44793111  0.82124112    -0.76700
Al335      Al  0.19743240  0.39751684  0.83282739     1.49000
C336        C  0.19676718  0.46294840  0.79948778     0.90700
O337        O  0.12112030  0.36382075  0.74846364    -0.82900
O338        O  0.08443725  0.63233510  0.83979111    -0.76400
Al339      Al  0.12126522  0.38591390  0.79702616     1.90100
O340        O  0.10734454  0.63744544  0.77003083    -0.75500
O341        O  0.15634107  0.64534811  0.86146226    -0.75400
O342        O  0.18116892  0.65824077  0.78562256    -0.81000
O343        O  0.21492097  0.69766731  0.85580955    -0.79200
O344        O  0.15009561  0.69904600  0.81491505    -1.15400
O345        O  0.16993936  0.40171363  0.87471562    -0.74600
C346        C  0.13891629  0.40712088  0.87464602     0.96200
C347        C  0.11135583  0.66004723  0.74358358     0.92600
Al348      Al  0.13375976  0.64715658  0.81456830     1.55600
O349        O  0.16486502  0.44020339  0.78174237    -0.79200
C350        C  0.19383936  0.66253572  0.86714887     0.96700
C351        C  0.05936091  0.64267127  0.82899228     0.91600
O352        O  0.07016183  0.67281646  0.80830181    -0.84500
O353        O  0.29019631  0.65816974  0.82510710    -0.84000
C354        C  0.20352189  0.52382101  0.89984079     0.95400
O355        O  0.19059560  0.54458672  0.88297432    -0.73100
O356        O  0.20018617  0.60974864  0.84932501    -0.76700
Al357      Al  0.21265471  0.57179462  0.83772191     1.49000
C358        C  0.21330624  0.63788329  0.87106595     0.90700
O359        O  0.28896116  0.61440661  0.92207058    -0.82900
O360        O  0.99232428  0.58627891  0.83072636    -0.76400
Al361      Al  0.28881575  0.63634950  0.87351282     1.90100
O362        O  0.30278469  0.56850222  0.90050067    -0.75500
O363        O  0.25374451  0.52735909  0.80908757    -0.75400
O364        O  0.22895944  0.51546188  0.88493260    -0.81000
O365        O  0.19516750  0.52113606  0.81472434    -0.79200
O366        O  0.25999384  0.58732361  0.85562607    -1.15400
O367        O  0.24013671  0.60349209  0.79583112    -0.74600
C368        C  0.27115466  0.63991491  0.79589904     0.96200
C369        C  0.29874166  0.58707376  0.92695014     0.92600
Al370      Al  0.27634889  0.55177855  0.85596984     1.55600
O371        O  0.24521728  0.64704401  0.88879909    -0.79200
C372        C  0.21624444  0.50706644  0.80339773     0.96700
C373        C  0.01739324  0.62168522  0.84152815     0.91600
O374        O  0.00658821  0.64101697  0.86223577    -0.84500
O375        O  0.05470226  0.42266232  0.01209173    -0.84000
C376        C  0.18903621  0.50934823  0.93737081     0.95400
O377        O  0.16828461  0.52229211  0.95423054    -0.73100
O378        O  0.10310838  0.51269445  0.98785806    -0.76700
Al379      Al  0.14106754  0.50024124  0.99948661     1.49000
C380        C  0.07496647  0.49954739  0.96613370     0.90700
O381        O  0.09846790  0.42390071  0.91514420    -0.82900
O382        O  0.12655875  0.38719568  0.00650047    -0.76400
Al383      Al  0.07652614  0.42404166  0.96369392     1.90100
O384        O  0.14433402  0.41004673  0.93671580    -0.75500
O385        O  0.18548677  0.45911656  0.02812120    -0.75400
O386        O  0.19737683  0.48389146  0.95228322    -0.81000
O387        O  0.19171984  0.51771541  0.02248600    -0.79200
O388        O  0.12553711  0.45287874  0.98158589    -1.15400
O389        O  0.10935161  0.47274552  0.04137604    -0.74600
C390        C  0.07293681  0.44171531  0.04130111     0.96200
C391        C  0.12578473  0.41411005  0.91026531     0.92600
Al392      Al  0.16105989  0.43650163  0.98124600     1.55600
O393        O  0.06582134  0.46762983  0.94840186    -0.79200
C394        C  0.20578713  0.49662970  0.03380454     0.96700
C395        C  0.09116608  0.36212450  0.99569673     0.91600
O396        O  0.07185730  0.37292676  0.97496892    -0.84500
O397        O  0.97318882  0.59298815  0.99178218    -0.84000
C398        C  0.02075994  0.50622284  0.06649447     0.95400
O399        O  0.98708644  0.49330124  0.04963345    -0.73100
O400        O  0.26490920  0.50297723  0.01596440    -0.76700
Al401      Al  0.98196951  0.51537345  0.00437511     1.49000
C402        C  0.24989914  0.51610084  0.03771491     0.90700
O403        O  0.01569810  0.59172299  0.08875847    -0.82900
O404        O  0.08049372  0.62839543  0.99743940    -0.76400
Al405      Al  0.99360986  0.59158960  0.04019428     1.90100
O406        O  0.07537056  0.60545500  0.06718546    -0.75500
O407        O  0.06745109  0.55649921  0.97573164    -0.75400
O408        O  0.05454473  0.53160907  0.05155764    -0.81000
O409        O  0.01517782  0.49789317  0.98140742    -0.79200
O410        O  0.01378010  0.56272901  0.02229444    -1.15400
O411        O  0.97779814  0.54289585  0.96249049    -0.74600
C412        C  0.97240345  0.57393901  0.96256793     0.96200
C413        C  0.05278777  0.60146813  0.09363444     0.92600
Al414      Al  0.06565057  0.57905277  0.02263839     1.55600
O415        O  0.27265096  0.54799866  0.05547595    -0.79200
C416        C  0.05029369  0.51899113  0.97005691     0.96700
C417        C  0.07017457  0.65348780  0.00823956     0.91600
O418        O  0.04003842  0.64269747  0.02892519    -0.84500
O419        O  0.97318864  0.35747125  0.17875506    -0.84000
C420        C  0.02075471  0.49180339  0.10404947     0.95400
O421        O  0.98707325  0.47105640  0.12090806    -0.73100
O422        O  0.26488976  0.40586027  0.15456686    -0.76700
Al423      Al  0.98194316  0.44386123  0.16616824     1.49000
C424        C  0.24989371  0.37772494  0.13282459     0.90700
O425        O  0.01570712  0.40125246  0.08178913    -0.82900
O426        O  0.08047508  0.42934932  0.17311550    -0.76400
Al427      Al  0.99361705  0.37929517  0.13034816     1.90100
O428        O  0.07537321  0.44716803  0.10336328    -0.75500
O429        O  0.06743058  0.48820658  0.19481150    -0.75400
O430        O  0.05453436  0.50018960  0.11898765    -0.81000
O431        O  0.01515254  0.49454606  0.18913497    -0.79200
O432        O  0.01376795  0.42831663  0.14825065    -1.15400
O433        O  0.97776629  0.41215596  0.20805151    -0.74600
C434        C  0.97238522  0.37572369  0.20796994     0.96200
C435        C  0.05279425  0.42858836  0.07691393     0.92600
Al436      Al  0.06563805  0.46385072  0.14790893     1.55600
O437        O  0.27266015  0.36858929  0.11506370    -0.79200
C438        C  0.05026982  0.50856139  0.20048223     0.96700
C439        C  0.07016755  0.39394642  0.16231401     0.91600
O440        O  0.04004927  0.37461467  0.14161607    -0.84500
O441        O  0.05469669  0.60931336  0.15845952    -0.84000
C442        C  0.18902326  0.32358381  0.23316790     0.95400
O443        O  0.16827581  0.28989085  0.21631269    -0.73100
O444        O  0.10309294  0.56766685  0.18268559    -0.76700
Al445      Al  0.14106697  0.61806911  0.17105456     1.49000
C446        C  0.07494284  0.55267426  0.20440721     0.90700
O447        O  0.09846034  0.31849073  0.25541003    -0.82900
O448        O  0.12654966  0.38327672  0.16405517    -0.76400
Al449      Al  0.07651675  0.29641338  0.20685910     1.90100
O450        O  0.14432919  0.37819305  0.23383256    -0.75500
O451        O  0.18545995  0.37026899  0.14241397    -0.75400
O452        O  0.19736951  0.35737320  0.21824554    -0.81000
O453        O  0.19173077  0.31792738  0.14806106    -0.79200
O454        O  0.12552881  0.31657060  0.18895949    -1.15400
O455        O  0.10935135  0.61386410  0.12916716    -0.74600
C456        C  0.07293273  0.60848727  0.12924680     0.96200
C457        C  0.12577902  0.35558901  0.26028544     0.92600
Al458      Al  0.16104809  0.36846005  0.18929670     1.55600
O459        O  0.06580138  0.57544921  0.22214791    -0.79200
C460        C  0.20578269  0.35307292  0.13673708     0.96700
C461        C  0.09115670  0.37296498  0.17486136     0.91600
O462        O  0.07184609  0.34285976  0.19558958    -0.84500
O463        O  0.29020319  0.60928821  0.34542890    -0.84000
C464        C  0.20349236  0.32359382  0.27070371     0.95400
O465        O  0.19057773  0.28991124  0.28757189    -0.73100
O466        O  0.20019963  0.56769661  0.32123661    -0.76700
Al467      Al  0.21264128  0.61810907  0.33282474     1.49000
C468        C  0.21331747  0.55268109  0.29948700     0.90700
O469        O  0.28895736  0.31847846  0.24846123    -0.82900
O470        O  0.99229549  0.38329034  0.33979277    -0.76400
Al471      Al  0.28881689  0.29638752  0.29702075     1.90100
O472        O  0.30274043  0.37818779  0.27003269    -0.75500
O473        O  0.25371853  0.37027409  0.36145933    -0.75400
O474        O  0.22890875  0.35738819  0.28561632    -0.81000
O475        O  0.19514236  0.31795072  0.35581233    -0.79200
O476        O  0.25997935  0.31658279  0.31491176    -1.15400
O477        O  0.24013202  0.61391054  0.37471143    -0.74600
C478        C  0.27116084  0.60851139  0.37463984     0.96200
C479        C  0.29871953  0.35558485  0.24358366     0.92600
Al480      Al  0.27631213  0.36847092  0.31456675     1.55600
O481        O  0.24522511  0.57542749  0.28174343    -0.79200
C482        C  0.21621942  0.35308345  0.36714777     0.96700
C483        C  0.01737788  0.37296137  0.32898916     0.91600
O484        O  0.00658485  0.34282409  0.30829059    -0.84500
O485        O  0.11986341  0.35745504  0.32511183    -0.84000
C486        C  0.20654760  0.49180574  0.39984061     0.95400
O487        O  0.21946904  0.47103798  0.38297342    -0.73100
O488        O  0.20987769  0.40587278  0.34932523    -0.76700
Al489      Al  0.19741325  0.44382792  0.33772144     1.49000
C490        C  0.19674995  0.37773407  0.37106375     0.90700
O491        O  0.12110104  0.40122142  0.42206941    -0.82900
O492        O  0.08441792  0.42935044  0.33072278    -0.76400
Al493      Al  0.12124332  0.37927527  0.37351503     1.90100
O494        O  0.10727196  0.44711944  0.40049695    -0.75500
O495        O  0.15633709  0.48827217  0.30908877    -0.75400
O496        O  0.18110385  0.50016157  0.38493695    -0.81000
O497        O  0.21491049  0.49448844  0.31472043    -0.79200
O498        O  0.15007258  0.42830150  0.35562681    -1.15400
O499        O  0.16993317  0.41212981  0.29583269    -0.74600
C500        C  0.13890895  0.37570988  0.29590286     0.96200
C501        C  0.11132270  0.42855595  0.42694726     0.92600
Al502      Al  0.13372061  0.46384821  0.35596966     1.55600
O503        O  0.16483394  0.36857111  0.38879547    -0.79200
C504        C  0.19383799  0.50856250  0.30339710     0.96700
C505        C  0.05934265  0.39394588  0.34152848     0.91600
O506        O  0.07013946  0.37461480  0.36224331    -0.84500
O507        O  0.35537413  0.59298767  0.51208365    -0.84000
C508        C  0.22103834  0.50629419  0.43736653     0.95400
O509        O  0.24179392  0.49335218  0.45422518    -0.73100
O510        O  0.30696582  0.50294681  0.48784814    -0.76700
Al511      Al  0.26900889  0.51540459  0.49948021     1.49000
C512        C  0.33511575  0.51609835  0.46612697     0.90700
O513        O  0.31161401  0.59174129  0.41513535    -0.82900
O514        O  0.28351498  0.62844655  0.50649690    -0.76400
Al515      Al  0.33355415  0.59160509  0.46368508     1.90100
O516        O  0.26575174  0.60560346  0.43671174    -0.75500
O517        O  0.22458210  0.55652391  0.52811627    -0.75400
O518        O  0.21270400  0.53175425  0.45227654    -0.81000
O519        O  0.21835457  0.49792666  0.52248540    -0.79200
O520        O  0.28454075  0.56276664  0.48157956    -1.15400
O521        O  0.30072322  0.54289943  0.54136987    -0.74600
C522        C  0.33713807  0.57393049  0.54129434     0.96200
C523        C  0.28429622  0.60153096  0.41025866     0.92600
Al524      Al  0.24901724  0.57914305  0.48124138     1.55600
O525        O  0.34426646  0.54801880  0.44839666    -0.79200
C526        C  0.20428221  0.51901056  0.53380051     0.96700
C527        C  0.31890873  0.65351938  0.49568995     0.91600
O528        O  0.33821899  0.64271948  0.47495697    -0.84500
O529        O  0.10355312  0.75598720  0.49177766    -0.84000
C530        C  0.05597570  0.84274957  0.56648883     0.95400
O531        O  0.08965268  0.85567337  0.54962497    -0.73100
O532        O  0.14516467  0.84599319  0.51595255    -0.76700
Al533      Al  0.09477397  0.83360287  0.50436675     1.49000
C534        C  0.16016928  0.83287089  0.53770663     0.90700
O535        O  0.06103164  0.75724931  0.58875051    -0.82900
O536        O  0.32958398  0.72058293  0.49743415    -0.76400
Al537      Al  0.08312555  0.75738406  0.54018785     1.90100
O538        O  0.33469603  0.74351781  0.56718002    -0.75500
O539        O  0.34263016  0.79248004  0.47572750    -0.75400
O540        O  0.35552673  0.81736633  0.55155400    -0.81000
O541        O  0.06156826  0.85108533  0.48140343    -0.79200
O542        O  0.06295973  0.78624676  0.52228828    -1.15400
O543        O  0.09894667  0.80607919  0.46248391    -0.74600
C544        C  0.10433710  0.77503362  0.46256304     0.96200
C545        C  0.02394180  0.74750400  0.59362739     0.92600
Al546      Al  0.34442318  0.76992362  0.52263392     1.55600
O547        O  0.13741339  0.80097360  0.55546939    -0.79200
C548        C  0.35978840  0.82998833  0.47005255     0.96700
C549        C  0.33989940  0.69548857  0.50823370     0.91600
O550        O  0.37003113  0.70627642  0.52891917    -0.84500
O551        O  0.10354203  0.99149338  0.67875386    -0.84000
C552        C  0.05597900  0.85716547  0.60404487     0.95400
O553        O  0.08965712  0.87790960  0.62090081    -0.73100
O554        O  0.14517248  0.94310040  0.65455747    -0.76700
Al555      Al  0.09478258  0.90510217  0.66616152     1.49000
C556        C  0.16017383  0.97123926  0.63281729     0.90700
O557        O  0.06103275  0.94772023  0.58178325    -0.82900
O558        O  0.32958270  0.91961773  0.67311052    -0.76400
Al559      Al  0.08311872  0.96967310  0.63034468     1.90100
O560        O  0.33469727  0.90179951  0.60335813    -0.75500
O561        O  0.34262334  0.86075939  0.69480915    -0.75400
O562        O  0.35553021  0.84877749  0.61898671    -0.81000
O563        O  0.06156790  0.85441760  0.68912995    -0.79200
O564        O  0.06296196  0.92065017  0.64824656    -1.15400
O565        O  0.09895792  0.93680545  0.70804700    -0.74600
C566        C  0.10434543  0.97324014  0.70796780     0.96200
C567        C  0.02394555  0.92038529  0.57690799     0.92600
Al568      Al  0.34442422  0.88511675  0.64790579     1.55600
O569        O  0.13741139  0.98037761  0.61505766    -0.79200
C570        C  0.35978217  0.84040313  0.70047883     0.96700
C571        C  0.33989610  0.95502248  0.66231007     0.91600
O572        O  0.37002134  0.97435592  0.64161517    -0.84500
O573        O  0.35536182  0.73966127  0.65845061    -0.84000
C574        C  0.22103783  0.02538308  0.73316462     0.95400
O575        O  0.24178104  0.72574184  0.71630899    -0.73100
O576        O  0.30696641  0.78129929  0.68267756    -0.76700
Al577      Al  0.26899076  0.73089813  0.67104967     1.49000
C578        C  0.33510828  0.79629021  0.70440261     0.90700
O579        O  0.31159474  0.69713894  0.75540260    -0.82900
O580        O  0.28351283  0.96568899  0.66405334    -0.76400
Al581      Al  0.33353862  0.71922198  0.70685047     1.90100
O582        O  0.26571975  0.97077359  0.73383024    -0.75500
O583        O  0.22460783  0.97869865  0.64240922    -0.75400
O584        O  0.21268482  0.99159217  0.71823822    -0.81000
O585        O  0.21832925  0.03103542  0.64806254    -0.79200
O586        O  0.28452881  0.03239654  0.68895377    -1.15400
O587        O  0.30070738  0.73510290  0.62916150    -0.74600
C588        C  0.33712701  0.74048374  0.62923955     0.96200
C589        C  0.28427753  0.99337383  0.76028055     0.92600
Al590      Al  0.24901063  0.98050657  0.68929272     1.55600
O591        O  0.34424420  0.77351400  0.72214490    -0.79200
C592        C  0.20428375  0.99589293  0.63673382     0.96700
C593        C  0.31890557  0.97600440  0.67485512     0.91600
O594        O  0.33821522  0.00611392  0.69557592    -0.84500
O595        O  0.11987922  0.73968199  0.84543620    -0.84000
C596        C  0.20657877  0.02536716  0.77070554     0.95400
O597        O  0.21949847  0.72571796  0.78757396    -0.73100
O598        O  0.20987623  0.78126440  0.82124112    -0.76700
Al599      Al  0.19743238  0.73085013  0.83282739     1.49000
C600        C  0.19676717  0.79628171  0.79948779     0.90700
O601        O  0.12112029  0.69715405  0.74846364    -0.82900
O602        O  0.08443724  0.96566842  0.83979109    -0.76400
Al603      Al  0.12126521  0.71924720  0.79702616     1.90100
O604        O  0.10734453  0.97077876  0.77003083    -0.75500
O605        O  0.15634110  0.97868156  0.86146227    -0.75400
O606        O  0.18116894  0.99157414  0.78562256    -0.81000
O607        O  0.21492103  0.03100070  0.85580954    -0.79200
O608        O  0.15009563  0.03237936  0.81491503    -1.15400
O609        O  0.16993934  0.73504693  0.87471562    -0.74600
C610        C  0.13891627  0.74045418  0.87464603     0.96200
C611        C  0.11135582  0.99338055  0.74358358     0.92600
Al612      Al  0.13375977  0.98048994  0.81456830     1.55600
O613        O  0.16486502  0.77353670  0.78174237    -0.79200
C614        C  0.19383939  0.99586912  0.86714886     0.96700
C615        C  0.05936092  0.97600462  0.82899227     0.91600
O616        O  0.07016187  0.00614983  0.80830183    -0.84500
O617        O  0.29019629  0.99150304  0.82510707    -0.84000
C618        C  0.20352189  0.85715434  0.89984078     0.95400
O619        O  0.19059562  0.87792007  0.88297431    -0.73100
O620        O  0.20018618  0.94308201  0.84932503    -0.76700
Al621      Al  0.21265474  0.90512800  0.83772189     1.49000
C622        C  0.21330626  0.97121669  0.87106597     0.90700
O623        O  0.28896115  0.94773994  0.92207058    -0.82900
O624        O  0.99232429  0.91961230  0.83072639    -0.76400
Al625      Al  0.28881577  0.96968287  0.87351281     1.90100
O626        O  0.30278471  0.90183557  0.90050067    -0.75500
O627        O  0.25374451  0.86069239  0.80908771    -0.75400
O628        O  0.22895946  0.84879524  0.88493261    -0.81000
O629        O  0.19516750  0.85446942  0.81472433    -0.79200
O630        O  0.25999386  0.92065699  0.85562607    -1.15400
O631        O  0.24013671  0.93682543  0.79583104    -0.74600
C632        C  0.27115467  0.97324824  0.79589900     0.96200
C633        C  0.29874165  0.92040710  0.92695015     0.92600
Al634      Al  0.27634890  0.88511193  0.85596988     1.55600
O635        O  0.24521734  0.98037747  0.88879905    -0.79200
C636        C  0.21624444  0.84039976  0.80339780     0.96700
C637        C  0.01739327  0.95501861  0.84152815     0.91600
O638        O  0.00658826  0.97435039  0.86223575    -0.84500
O639        O  0.05470229  0.75599563  0.01209178    -0.84000
C640        C  0.18903619  0.84268152  0.93737080     0.95400
O641        O  0.16828460  0.85562541  0.95423054    -0.73100
O642        O  0.10310847  0.84602778  0.98785803    -0.76700
Al643      Al  0.14106756  0.83357454  0.99948661     1.49000
C644        C  0.07496651  0.83288073  0.96613370     0.90700
O645        O  0.09846786  0.75723400  0.91514424    -0.82900
O646        O  0.12655873  0.72052898  0.00650048    -0.76400
Al647      Al  0.07652612  0.75737496  0.96369398     1.90100
O648        O  0.14433400  0.74338002  0.93671581    -0.75500
O649        O  0.18548675  0.79244985  0.02812119    -0.75400
O650        O  0.19737682  0.81722476  0.95228321    -0.81000
O651        O  0.19171983  0.85104871  0.02248600    -0.79200
O652        O  0.12553710  0.78621203  0.98158592    -1.15400
O653        O  0.10935166  0.80607884  0.04137604    -0.74600
C654        C  0.07293685  0.77504862  0.04130114     0.96200
C655        C  0.12578470  0.74744335  0.91026533     0.92600
Al656      Al  0.16105988  0.76983492  0.98124600     1.55600
O657        O  0.06582131  0.80096313  0.94840193    -0.79200
C658        C  0.20578711  0.82996299  0.03380454     0.96700
C659        C  0.09116607  0.69545779  0.99569674     0.91600
O660        O  0.07185727  0.70626006  0.97496897    -0.84500
O661        O  0.97318890  0.92632157  0.99178217    -0.84000
C662        C  0.02075995  0.83955619  0.06649447     0.95400
O663        O  0.98708647  0.82663468  0.04963347    -0.73100
O664        O  0.26490918  0.83631053  0.01596440    -0.76700
Al665      Al  0.98196950  0.84870680  0.00437511     1.49000
C666        C  0.24989911  0.84943412  0.03771491     0.90700
O667        O  0.01569809  0.92505626  0.08875846    -0.82900
O668        O  0.08049371  0.96172876  0.99743938    -0.76400
Al669      Al  0.99360986  0.92492294  0.04019428     1.90100
O670        O  0.07537061  0.93878848  0.06718545    -0.75500
O671        O  0.06745118  0.88983262  0.97573165    -0.75400
O672        O  0.05454476  0.86494241  0.05155765    -0.81000
O673        O  0.01517790  0.83122663  0.98140742    -0.79200
O674        O  0.01378010  0.89606235  0.02229442    -1.15400
O675        O  0.97779809  0.87622918  0.96249051    -0.74600
C676        C  0.97240346  0.90727236  0.96256793     0.96200
C677        C  0.05278778  0.93480148  0.09363444     0.92600
Al678      Al  0.06565059  0.91238614  0.02263840     1.55600
O679        O  0.27265091  0.88133196  0.05547593    -0.79200
C680        C  0.05029379  0.85232457  0.97005693     0.96700
C681        C  0.07017457  0.98682114  0.00823955     0.91600
O682        O  0.04003843  0.97603080  0.02892520    -0.84500
O683        O  0.97318863  0.69080455  0.17875506    -0.84000
C684        C  0.02075471  0.82513670  0.10404946     0.95400
O685        O  0.98707323  0.80438970  0.12090806    -0.73100
O686        O  0.26488976  0.73919357  0.15456686    -0.76700
Al687      Al  0.98194314  0.77719453  0.16616824     1.49000
C688        C  0.24989370  0.71105825  0.13282459     0.90700
O689        O  0.01570714  0.73458581  0.08178912    -0.82900
O690        O  0.08047493  0.76268259  0.17311554    -0.76400
Al691      Al  0.99361704  0.71262847  0.13034815     1.90100
O692        O  0.07537322  0.78050136  0.10336330    -0.75500
O693        O  0.06743057  0.82153990  0.19481150    -0.75400
O694        O  0.05453434  0.83352290  0.11898764    -0.81000
O695        O  0.01515252  0.82787938  0.18913497    -0.79200
O696        O  0.01376792  0.76164993  0.14825064    -1.15400
O697        O  0.97776627  0.74548927  0.20805150    -0.74600
C698        C  0.97238521  0.70905703  0.20796994     0.96200
C699        C  0.05279428  0.76192173  0.07691394     0.92600
Al700      Al  0.06563801  0.79718402  0.14790894     1.55600
O701        O  0.27266014  0.70192259  0.11506370    -0.79200
C702        C  0.05026982  0.84189473  0.20048224     0.96700
C703        C  0.07016750  0.72727972  0.16231401     0.91600
O704        O  0.04004925  0.70794795  0.14161604    -0.84500
O705        O  0.05469670  0.94264672  0.15845952    -0.84000
C706        C  0.18902331  0.65691724  0.23316792     0.95400
O707        O  0.16827582  0.62322419  0.21631271    -0.73100
O708        O  0.10309294  0.90100019  0.18268559    -0.76700
Al709      Al  0.14106697  0.95140243  0.17105456     1.49000
C710        C  0.07494284  0.88600762  0.20440721     0.90700
O711        O  0.09846038  0.65182409  0.25541003    -0.82900
O712        O  0.12654966  0.71661005  0.16405521    -0.76400
Al713      Al  0.07651674  0.62974669  0.20685910     1.90100
O714        O  0.14432919  0.71152644  0.23383260    -0.75500
O715        O  0.18546003  0.70360243  0.14241406    -0.75400
O716        O  0.19736951  0.69070655  0.21824558    -0.81000
O717        O  0.19173073  0.65126073  0.14806104    -0.79200
O718        O  0.12552881  0.64990392  0.18895952    -1.15400
O719        O  0.10935134  0.94719740  0.12916716    -0.74600
C720        C  0.07293272  0.94182057  0.12924681     0.96200
C721        C  0.12577904  0.68892239  0.26028546     0.92600
Al722      Al  0.16104809  0.70179340  0.18929676     1.55600
O723        O  0.06580139  0.90878260  0.22214790    -0.79200
C724        C  0.20578269  0.68640628  0.13673709     0.96700
C725        C  0.09115668  0.70629830  0.17486138     0.91600
O726        O  0.07184607  0.67619306  0.19558958    -0.84500
O727        O  0.29020319  0.94262152  0.34542890    -0.84000
C728        C  0.20349236  0.65692716  0.27070372     0.95400
O729        O  0.19057777  0.62324466  0.28757189    -0.73100
O730        O  0.20019968  0.90103000  0.32123659    -0.76700
Al731      Al  0.21264123  0.95144237  0.33282476     1.49000
C732        C  0.21331748  0.88601444  0.29948700     0.90700
O733        O  0.28895758  0.65181187  0.24846125    -0.82900
O734        O  0.99229547  0.71662363  0.33979278    -0.76400
Al735      Al  0.28881696  0.62972087  0.29702076     1.90100
O736        O  0.30274044  0.71152116  0.27003269    -0.75500
O737        O  0.25371853  0.70360742  0.36145933    -0.75400
O738        O  0.22890880  0.69072163  0.28561632    -0.81000
O739        O  0.19514236  0.65128403  0.35581233    -0.79200
O740        O  0.25997938  0.64991616  0.31491175    -1.15400
O741        O  0.24013200  0.94724385  0.37471143    -0.74600
C742        C  0.27116086  0.94184475  0.37463983     0.96200
C743        C  0.29871960  0.68891821  0.24358367     0.92600
Al744      Al  0.27631215  0.70180431  0.31456675     1.55600
O745        O  0.24522511  0.90876079  0.28174343    -0.79200
C746        C  0.21621942  0.68641676  0.36714777     0.96700
C747        C  0.01737786  0.70629467  0.32898916     0.91600
O748        O  0.00658483  0.67615739  0.30829060    -0.84500
O749        O  0.11986344  0.69078838  0.32511183    -0.84000
C750        C  0.20654760  0.82513911  0.39984061     0.95400
O751        O  0.21946899  0.80437129  0.38297345    -0.73100
O752        O  0.20987767  0.73920608  0.34932522    -0.76700
Al753      Al  0.19741324  0.77716125  0.33772145     1.49000
C754        C  0.19674993  0.71106737  0.37106375     0.90700
O755        O  0.12110102  0.73455475  0.42206942    -0.82900
O756        O  0.08441791  0.76268373  0.33072278    -0.76400
Al757      Al  0.12124330  0.71260858  0.37351504     1.90100
O758        O  0.10727195  0.78045276  0.40049694    -0.75500
O759        O  0.15633708  0.82160549  0.30908877    -0.75400
O760        O  0.18110392  0.83349500  0.38493692    -0.81000
O761        O  0.21491047  0.82782177  0.31472044    -0.79200
O762        O  0.15007258  0.76163482  0.35562682    -1.15400
O763        O  0.16993317  0.74546320  0.29583269    -0.74600
C764        C  0.13890897  0.70904325  0.29590286     0.96200
C765        C  0.11132273  0.76188930  0.42694727     0.92600
Al766      Al  0.13372061  0.79718154  0.35596966     1.55600
O767        O  0.16483392  0.70190440  0.38879547    -0.79200
C768        C  0.19383798  0.84189583  0.30339713     0.96700
C769        C  0.05934263  0.72727918  0.34152849     0.91600
O770        O  0.07013945  0.70794809  0.36224331    -0.84500
O771        O  0.35537407  0.92632099  0.51208364    -0.84000
C772        C  0.22103835  0.83962754  0.43736653     0.95400
O773        O  0.24179388  0.82668549  0.45422519    -0.73100
O774        O  0.30696584  0.83628017  0.48784813    -0.76700
Al775      Al  0.26900886  0.84873788  0.49948022     1.49000
C776        C  0.33511578  0.84943177  0.46612700     0.90700
O777        O  0.31161398  0.92507463  0.41513535    -0.82900
O778        O  0.28351500  0.96177988  0.50649692    -0.76400
Al779      Al  0.33355409  0.92493843  0.46368508     1.90100
O780        O  0.26575174  0.93893682  0.43671174    -0.75500
O781        O  0.22458207  0.88985719  0.52811628    -0.75400
O782        O  0.21270407  0.86508767  0.45227651    -0.81000
O783        O  0.21835454  0.83125995  0.52248541    -0.79200
O784        O  0.28454070  0.89609995  0.48157957    -1.15400
O785        O  0.30072320  0.87623272  0.54136988    -0.74600
C786        C  0.33713805  0.90726379  0.54129434     0.96200
C787        C  0.28429624  0.93486437  0.41025867     0.92600
Al788      Al  0.24901724  0.91247640  0.48124139     1.55600
O789        O  0.34426643  0.88135218  0.44839665    -0.79200
C790        C  0.20428217  0.85234384  0.53380052     0.96700
C791        C  0.31890874  0.98685275  0.49568996     0.91600
O792        O  0.33821900  0.97605289  0.47495694    -0.84500
O793        O  0.43688649  0.08932053  0.49177766    -0.84000
C794        C  0.38930897  0.17608290  0.56648883     0.95400
O795        O  0.42298594  0.18900665  0.54962495    -0.73100
O796        O  0.47849793  0.17932656  0.51595257    -0.76700
Al797      Al  0.42810717  0.16693610  0.50436677     1.49000
C798        C  0.49350258  0.16620425  0.53770662     0.90700
O799        O  0.39436493  0.09058265  0.58875049    -0.82900
O800        O  0.66291738  0.05391628  0.49743411    -0.76400
Al801      Al  0.41645889  0.09071736  0.54018786     1.90100
O802        O  0.66802943  0.07685115  0.56718003    -0.75500
O803        O  0.67596357  0.12581335  0.47572749    -0.75400
O804        O  0.68886008  0.15069964  0.55155397    -0.81000
O805        O  0.39490155  0.18441863  0.48140340    -0.79200
O806        O  0.39629301  0.11958002  0.52228829    -1.15400
O807        O  0.43227975  0.13941237  0.46248392    -0.74600
C808        C  0.43767029  0.10836683  0.46256306     0.96200
C809        C  0.35727514  0.08083739  0.59362741     0.92600
Al810      Al  0.67775656  0.10325694  0.52263390     1.55600
O811        O  0.47074675  0.13430695  0.55546937    -0.79200
C812        C  0.69312178  0.16332164  0.47005254     0.96700
C813        C  0.67323276  0.02882193  0.50823373     0.91600
O814        O  0.70336447  0.03960979  0.52891924    -0.84500
O815        O  0.43687541  0.32482671  0.67875386    -0.84000
C816        C  0.38931239  0.19049887  0.60404488     0.95400
O817        O  0.42299051  0.21124292  0.62090085    -0.73100
O818        O  0.47850570  0.27643382  0.65455749    -0.76700
Al819      Al  0.42811595  0.23843546  0.66616160     1.49000
C820        C  0.49350708  0.30457268  0.63281732     0.90700
O821        O  0.39436617  0.28105360  0.58178325    -0.82900
O822        O  0.66291603  0.25295101  0.67311056    -0.76400
Al823      Al  0.41645208  0.30300645  0.63034469     1.90100
O824        O  0.66803050  0.23513286  0.60335816    -0.75500
O825        O  0.67595679  0.19409280  0.69480915    -0.75400
O826        O  0.68886354  0.18211071  0.61898673    -0.81000
O827        O  0.39490119  0.18775091  0.68912998    -0.79200
O828        O  0.39629533  0.25398350  0.64824662    -1.15400
O829        O  0.43229121  0.27013873  0.70804706    -0.74600
C830        C  0.43767871  0.30657344  0.70796783     0.96200
C831        C  0.35727901  0.25371867  0.57690797     0.92600
Al832      Al  0.67775758  0.21845007  0.64790578     1.55600
O833        O  0.47074467  0.31371102  0.61505765    -0.79200
C834        C  0.69311555  0.17373648  0.70047880     0.96700
C835        C  0.67322937  0.28835575  0.66231010     0.91600
O836        O  0.70335455  0.30768919  0.64161516    -0.84500
O837        O  0.68869523  0.07299467  0.65845062    -0.84000
C838        C  0.55437111  0.35871639  0.73316462     0.95400
O839        O  0.57511428  0.05907521  0.71630896    -0.73100
O840        O  0.64029966  0.11463262  0.68267763    -0.76700
Al841      Al  0.60232411  0.06423149  0.67104966     1.49000
C842        C  0.66844159  0.12962358  0.70440262     0.90700
O843        O  0.64492812  0.03047233  0.75540260    -0.82900
O844        O  0.61684609  0.29902231  0.66405329    -0.76400
Al845      Al  0.66687198  0.05255538  0.70685046     1.90100
O846        O  0.59905318  0.30410692  0.73383023    -0.75500
O847        O  0.55794103  0.31203194  0.64240923    -0.75400
O848        O  0.54601820  0.32492548  0.71823828    -0.81000
O849        O  0.55166262  0.36436881  0.64806252    -0.79200
O850        O  0.61786212  0.36572983  0.68895378    -1.15400
O851        O  0.63404080  0.06843630  0.62916151    -0.74600
C852        C  0.67046047  0.07381716  0.62923958     0.96200
C853        C  0.61761094  0.32670718  0.76028055     0.92600
Al854      Al  0.58234393  0.31383986  0.68929272     1.55600
O855        O  0.67757758  0.10684740  0.72214487    -0.79200
C856        C  0.53761702  0.32922630  0.63673384     0.96700
C857        C  0.65223879  0.30933768  0.67485513     0.91600
O858        O  0.67154845  0.33944722  0.69557593    -0.84500
O859        O  0.45321263  0.07301542  0.84543619    -0.84000
C860        C  0.53991202  0.35870049  0.77070554     0.95400
O861        O  0.55283169  0.05905134  0.78757394    -0.73100
O862        O  0.54320942  0.11459770  0.82124125    -0.76700
Al863      Al  0.53076562  0.06418343  0.83282740     1.49000
C864        C  0.53010046  0.12961505  0.79948787     0.90700
O865        O  0.45445368  0.03048741  0.74846364    -0.82900
O866        O  0.41777057  0.29900174  0.83979113    -0.76400
Al867      Al  0.45459858  0.05258058  0.79702614     1.90100
O868        O  0.44067787  0.30411213  0.77003083    -0.75500
O869        O  0.48967448  0.31201482  0.86146225    -0.75400
O870        O  0.51450217  0.32490747  0.78562254    -0.81000
O871        O  0.54825437  0.36433404  0.85580954    -0.79200
O872        O  0.48342891  0.36571269  0.81491507    -1.15400
O873        O  0.50327260  0.06838013  0.87471565    -0.74600
C874        C  0.47224956  0.07378752  0.87464601     0.96200
C875        C  0.44468910  0.32671386  0.74358359     0.92600
Al876      Al  0.46709308  0.31382328  0.81456831     1.55600
O877        O  0.49819839  0.10687008  0.78174234    -0.79200
C878        C  0.52717279  0.32920244  0.86714885     0.96700
C879        C  0.39269424  0.30933788  0.82899224     0.91600
O880        O  0.40349521  0.33948312  0.80830181    -0.84500
O881        O  0.62352959  0.32483645  0.82510709    -0.84000
C882        C  0.53685519  0.19048769  0.89984077     0.95400
O883        O  0.52392900  0.21125342  0.88297432    -0.73100
O884        O  0.53351962  0.27641536  0.84932499    -0.76700
Al885      Al  0.54598813  0.23846133  0.83772187     1.49000
C886        C  0.54663968  0.30455000  0.87106595     0.90700
O887        O  0.62229456  0.28107328  0.92207058    -0.82900
O888        O  0.32565753  0.25294560  0.83072634    -0.76400
Al889      Al  0.62214912  0.30301620  0.87351282     1.90100
O890        O  0.63611803  0.23516887  0.90050066    -0.75500
O891        O  0.58707789  0.19402575  0.80908758    -0.75400
O892        O  0.56229282  0.18212856  0.88493259    -0.81000
O893        O  0.52850093  0.18780279  0.81472435    -0.79200
O894        O  0.59332723  0.25399032  0.85562606    -1.15400
O895        O  0.57347014  0.27015876  0.79583103    -0.74600
C896        C  0.60448806  0.30658161  0.79589900     0.96200
C897        C  0.63207495  0.25374036  0.92695014     0.92600
Al898      Al  0.60968225  0.21844524  0.85596985     1.55600
O899        O  0.57855070  0.31371071  0.88879911    -0.79200
C900        C  0.54957781  0.17373311  0.80339777     0.96700
C901        C  0.35072656  0.28835189  0.84152813     0.91600
O902        O  0.33992162  0.30768367  0.86223579    -0.84500
O903        O  0.38803558  0.08932908  0.01209173    -0.84000
C904        C  0.52236958  0.17601481  0.93737078     0.95400
O905        O  0.50161801  0.18895879  0.95423055    -0.73100
O906        O  0.43644179  0.17936117  0.98785806    -0.76700
Al907      Al  0.47440090  0.16690792  0.99948659     1.49000
C908        C  0.40829987  0.16621410  0.96613370     0.90700
O909        O  0.43180123  0.09056739  0.91514420    -0.82900
O910        O  0.45989203  0.05386233  0.00650044    -0.76400
Al911      Al  0.40985948  0.09070838  0.96369393     1.90100
O912        O  0.47766738  0.07671346  0.93671579    -0.75500
O913        O  0.51882000  0.12578326  0.02812122    -0.75400
O914        O  0.53071020  0.15055813  0.95228323    -0.81000
O915        O  0.52505315  0.18438215  0.02248602    -0.79200
O916        O  0.45887046  0.11954543  0.98158588    -1.15400
O917        O  0.44268499  0.13941217  0.04137604    -0.74600
C918        C  0.40627017  0.10838199  0.04130113     0.96200
C919        C  0.45911811  0.08077673  0.91026533     0.92600
Al920      Al  0.49439322  0.10316831  0.98124600     1.55600
O921        O  0.39915474  0.13429655  0.94840184    -0.79200
C922        C  0.53912042  0.16329642  0.03380456     0.96700
C923        C  0.42449933  0.02879117  0.99569674     0.91600
O924        O  0.40519056  0.03959347  0.97496896    -0.84500
O925        O  0.30652214  0.25965483  0.99178216    -0.84000
C926        C  0.35409343  0.17288954  0.06649445     0.95400
O927        O  0.32041979  0.15996789  0.04963342    -0.73100
O928        O  0.59824250  0.16964392  0.01596437    -0.76700
Al929      Al  0.31530289  0.18204014  0.00437511     1.49000
C930        C  0.58323245  0.18276753  0.03771490     0.90700
O931        O  0.34903146  0.25838970  0.08875848    -0.82900
O932        O  0.41382694  0.29506212  0.99743936    -0.76400
Al933      Al  0.32694316  0.25825632  0.04019430     1.90100
O934        O  0.40870391  0.27212171  0.06718545    -0.75500
O935        O  0.40078448  0.22316592  0.97573164    -0.75400
O936        O  0.38787806  0.19827580  0.05155767    -0.81000
O937        O  0.34851123  0.16455988  0.98140742    -0.79200
O938        O  0.34711339  0.22939570  0.02229446    -1.15400
O939        O  0.31113151  0.20956253  0.96249050    -0.74600
C940        C  0.30573675  0.24060569  0.96256796     0.96200
C941        C  0.38612110  0.26813484  0.09363445     0.92600
Al942      Al  0.39898385  0.24571948  0.02263838     1.55600
O943        O  0.60598432  0.21466534  0.05547596    -0.79200
C944        C  0.38362710  0.18565785  0.97005692     0.96700
C945        C  0.40350782  0.32015451  0.00823956     0.91600
O946        O  0.37337172  0.30936419  0.02892524    -0.84500
O947        O  0.30652200  0.02413792  0.17875506    -0.84000
C948        C  0.35408794  0.15846996  0.10404944     0.95400
O949        O  0.32040663  0.13772308  0.12090805    -0.73100
O950        O  0.59822312  0.07252692  0.15456686    -0.76700
Al951      Al  0.31527649  0.11052792  0.16616825     1.49000
C952        C  0.58322707  0.04439161  0.13282460     0.90700
O953        O  0.34904046  0.06791912  0.08178919    -0.82900
O954        O  0.41380828  0.09601601  0.17311553    -0.76400
Al955      Al  0.32695035  0.04596183  0.13034818     1.90100
O956        O  0.40870652  0.11383480  0.10336331    -0.75500
O957        O  0.40076382  0.15487324  0.19481149    -0.75400
O958        O  0.38786772  0.16685629  0.11898766    -0.81000
O959        O  0.34848583  0.16121281  0.18913499    -0.79200
O960        O  0.34710123  0.09498331  0.14825063    -1.15400
O961        O  0.31109970  0.07882265  0.20805152    -0.74600
C962        C  0.30571862  0.04239043  0.20796997     0.96200
C963        C  0.38612759  0.09525504  0.07691397     0.92600
Al964      Al  0.39897131  0.13051741  0.14790894     1.55600
O965        O  0.60599353  0.03525597  0.11506371    -0.79200
C966        C  0.38360314  0.17522811  0.20048222     0.96700
C967        C  0.40350083  0.06061312  0.16231403     0.91600
O968        O  0.37338259  0.04128137  0.14161605    -0.84500
O969        O  0.38803009  0.27598006  0.15845952    -0.84000
C970        C  0.52235673  0.99025057  0.23316788     0.95400
O971        O  0.50160923  0.95655752  0.21631269    -0.73100
O972        O  0.43642637  0.23433354  0.18268560    -0.76700
Al973      Al  0.47440039  0.28473579  0.17105456     1.49000
C974        C  0.40827623  0.21934098  0.20440721     0.90700
O975        O  0.43179371  0.98515743  0.25541002    -0.82900
O976        O  0.45988301  0.04994345  0.16405515    -0.76400
Al977      Al  0.40985012  0.96308007  0.20685909     1.90100
O978        O  0.47766259  0.04485974  0.23383257    -0.75500
O979        O  0.51879335  0.03693571  0.14241398    -0.75400
O980        O  0.53070293  0.02403988  0.21824551    -0.81000
O981        O  0.52506407  0.98459405  0.14806103    -0.79200
O982        O  0.45886219  0.98323726  0.18895949    -1.15400
O983        O  0.44268475  0.28053079  0.12916715    -0.74600
C984        C  0.40626617  0.27515398  0.12924678     0.96200
C985        C  0.45911236  0.02225571  0.26028544     0.92600
Al986      Al  0.49438147  0.03512674  0.18929669     1.55600
O987        O  0.39913479  0.24211594  0.22214789    -0.79200
C988        C  0.53911604  0.01973959  0.13673708     0.96700
C989        C  0.42449006  0.03963173  0.17486137     0.91600
O990        O  0.40517947  0.00952649  0.19558959    -0.84500
O991        O  0.62353646  0.27595492  0.34542892    -0.84000
C992        C  0.53682572  0.99026048  0.27070370     0.95400
O993        O  0.52391118  0.95657799  0.28757186    -0.73100
O994        O  0.53353298  0.23436328  0.32123663    -0.76700
Al995      Al  0.54597463  0.28477577  0.33282474     1.49000
C996        C  0.54665078  0.21934774  0.29948698     0.90700
O997        O  0.62229078  0.98514518  0.24846124    -0.82900
O998        O  0.32562870  0.04995681  0.33979282    -0.76400
Al999      Al  0.62215024  0.96305418  0.29702075     1.90100
O1000       O  0.63607362  0.04485445  0.27003269    -0.75500
O1001       O  0.58705180  0.03694070  0.36145935    -0.75400
O1002       O  0.56224202  0.02405494  0.28561637    -0.81000
O1003       O  0.52847562  0.98461735  0.35581234    -0.79200
O1004       O  0.59331266  0.98324945  0.31491176    -1.15400
O1005       O  0.57346529  0.28057727  0.37471145    -0.74600
C1006       C  0.60449413  0.27517810  0.37463983     0.96200
C1007       C  0.63205284  0.02225147  0.24358364     0.92600
Al1008     Al  0.60964537  0.03513756  0.31456676     1.55600
O1009       O  0.57855842  0.24209413  0.28174344    -0.79200
C1010       C  0.54955267  0.01975005  0.36714781     0.96700
C1011       C  0.35071118  0.03962798  0.32898916     0.91600
O1012       O  0.33991824  0.00949076  0.30829056    -0.84500
O1013       O  0.45319679  0.02412174  0.32511183    -0.84000
C1014       C  0.53988091  0.15847231  0.39984068     0.95400
O1015       O  0.55280230  0.13770456  0.38297355    -0.73100
O1016       O  0.54321100  0.07253937  0.34932521    -0.76700
Al1017     Al  0.53074662  0.11049458  0.33772147     1.49000
C1018       C  0.53008325  0.04440073  0.37106377     0.90700
O1019       O  0.45443437  0.06788814  0.42206941    -0.82900
O1020       O  0.41775119  0.09601718  0.33072282    -0.76400
Al1021     Al  0.45457664  0.04594198  0.37351502     1.90100
O1022       O  0.44060536  0.11378619  0.40049695    -0.75500
O1023       O  0.48967044  0.15493882  0.30908877    -0.75400
O1024       O  0.51443723  0.16682827  0.38493693    -0.81000
O1025       O  0.54824386  0.16115515  0.31472044    -0.79200
O1026       O  0.48340591  0.09496818  0.35562677    -1.15400
O1027       O  0.50326660  0.07879650  0.29583268    -0.74600
C1028       C  0.47224234  0.04237659  0.29590285     0.96200
C1029       C  0.44465600  0.09522265  0.42694725     0.92600
Al1030     Al  0.46705397  0.13051492  0.35596966     1.55600
O1031       O  0.49816723  0.03523780  0.38879548    -0.79200
C1032       C  0.52717134  0.17522916  0.30339710     0.96700
C1033       C  0.39267595  0.06061259  0.34152850     0.91600
O1034       O  0.40347281  0.04128152  0.36224328    -0.84500
O1035       O  0.68870743  0.25965432  0.51208364    -0.84000
C1036       C  0.55437157  0.17296086  0.43736658     0.95400
O1037       O  0.57512726  0.16001890  0.45422525    -0.73100
O1038       O  0.64029921  0.16961352  0.48784820    -0.76700
Al1039     Al  0.60234221  0.18207126  0.49948028     1.49000
C1040       C  0.66844911  0.18276507  0.46612700     0.90700
O1041       O  0.64494723  0.25840798  0.41513535    -0.82900
O1042       O  0.61684833  0.29511319  0.50649694    -0.76400
Al1043     Al  0.66688739  0.25827176  0.46368508     1.90100
O1044       O  0.59908495  0.27227011  0.43671174    -0.75500
O1045       O  0.55791532  0.22319057  0.52811626    -0.75400
O1046       O  0.54603724  0.19842087  0.45227656    -0.81000
O1047       O  0.55168789  0.16459337  0.52248547    -0.79200
O1048       O  0.61787402  0.22943328  0.48157960    -1.15400
O1049       O  0.63405653  0.20956608  0.54136991    -0.74600
C1050       C  0.67047132  0.24059711  0.54129437     0.96200
C1051       C  0.61762942  0.26819767  0.41025868     0.92600
Al1052     Al  0.58235050  0.24580970  0.48124140     1.55600
O1053       O  0.67759971  0.21468548  0.44839664    -0.79200
C1054       C  0.53761547  0.18567724  0.53380051     0.96700
C1055       C  0.65224207  0.32018605  0.49568996     0.91600
O1056       O  0.67155229  0.30938617  0.47495691    -0.84500
O1057       O  0.43688651  0.42265388  0.49177767    -0.84000
C1058       C  0.38930895  0.50941619  0.56648888     0.95400
O1059       O  0.42298594  0.52233992  0.54962505    -0.73100
O1060       O  0.47849792  0.51265987  0.51595256    -0.76700
Al1061     Al  0.42810716  0.50026942  0.50436680     1.49000
C1062       C  0.49350259  0.49953757  0.53770661     0.90700
O1063       O  0.39436493  0.42391601  0.58875050    -0.82900
O1064       O  0.66291736  0.38724958  0.49743410    -0.76400
Al1065     Al  0.41645891  0.42405073  0.54018786     1.90100
O1066       O  0.66802939  0.41018444  0.56718003    -0.75500
O1067       O  0.67596355  0.45914665  0.47572750    -0.75400
O1068       O  0.68886007  0.48403295  0.55155400    -0.81000
O1069       O  0.39490153  0.51775193  0.48140342    -0.79200
O1070       O  0.39629300  0.45291335  0.52228829    -1.15400
O1071       O  0.43227973  0.47274568  0.46248392    -0.74600
C1072       C  0.43767027  0.44170015  0.46256306     0.96200
C1073       C  0.35727513  0.41417069  0.59362741     0.92600
Al1074     Al  0.67775652  0.43659024  0.52263390     1.55600
O1075       O  0.47074677  0.46764029  0.55546938    -0.79200
C1076       C  0.69312177  0.49665494  0.47005255     0.96700
C1077       C  0.67323274  0.36215524  0.50823371     0.91600
O1078       O  0.70336442  0.37294309  0.52891924    -0.84500
O1079       O  0.43687541  0.65816006  0.67875385    -0.84000
C1080       C  0.38931235  0.52383215  0.60404491     0.95400
O1081       O  0.42299048  0.54457622  0.62090087    -0.73100
O1082       O  0.47850572  0.60976711  0.65455748    -0.76700
Al1083     Al  0.42811595  0.57176879  0.66616160     1.49000
C1084       C  0.49350710  0.63790595  0.63281731     0.90700
O1085       O  0.39436617  0.61438692  0.58178325    -0.82900
O1086       O  0.66291611  0.58628444  0.67311055    -0.76400
Al1087     Al  0.41645210  0.63633978  0.63034469     1.90100
O1088       O  0.66803051  0.56846619  0.60335815    -0.75500
O1089       O  0.67595678  0.52742613  0.69480915    -0.75400
O1090       O  0.68886359  0.51544419  0.61898670    -0.81000
O1091       O  0.39490119  0.52108424  0.68912999    -0.79200
O1092       O  0.39629532  0.58731682  0.64824662    -1.15400
O1093       O  0.43229127  0.60347211  0.70804705    -0.74600
C1094       C  0.43767872  0.63990679  0.70796783     0.96200
C1095       C  0.35727896  0.58705198  0.57690799     0.92600
Al1096     Al  0.67775760  0.55178345  0.64790579     1.55600
O1097       O  0.47074469  0.64704431  0.61505765    -0.79200
C1098       C  0.69311555  0.50706981  0.70047883     0.96700
C1099       C  0.67322940  0.62168916  0.66231008     0.91600
O1100       O  0.70335461  0.64102264  0.64161516    -0.84500
O1101       O  0.68869520  0.40632797  0.65845061    -0.84000
C1102       C  0.55437109  0.69204969  0.73316462     0.95400
O1103       O  0.57511428  0.39240853  0.71630896    -0.73100
O1104       O  0.64029967  0.44796602  0.68267761    -0.76700
Al1105     Al  0.60232412  0.39756481  0.67104967     1.49000
C1106       C  0.66844158  0.46295692  0.70440262     0.90700
O1107       O  0.64492813  0.36380567  0.75540259    -0.82900
O1108       O  0.61684607  0.63235561  0.66405329    -0.76400
Al1109     Al  0.66687197  0.38588869  0.70685046     1.90100
O1110       O  0.59905316  0.63744022  0.73383024    -0.75500
O1111       O  0.55794104  0.64536524  0.64240923    -0.75400
O1112       O  0.54601818  0.65825877  0.71823828    -0.81000
O1113       O  0.55166260  0.69770210  0.64806252    -0.79200
O1114       O  0.61786210  0.69906312  0.68895378    -1.15400
O1115       O  0.63404078  0.40176960  0.62916152    -0.74600
C1116       C  0.67046045  0.40715046  0.62923958     0.96200
C1117       C  0.61761092  0.66004048  0.76028055     0.92600
Al1118     Al  0.58234392  0.64717316  0.68929272     1.55600
O1119       O  0.67757755  0.44018070  0.72214485    -0.79200
C1120       C  0.53761703  0.66255960  0.63673384     0.96700
C1121       C  0.65223880  0.64267102  0.67485512     0.91600
O1122       O  0.67154842  0.67278053  0.69557594    -0.84500
O1123       O  0.45321258  0.40634870  0.84543618    -0.84000
C1124       C  0.53991201  0.69203379  0.77070554     0.95400
O1125       O  0.55283169  0.39238467  0.78757394    -0.73100
O1126       O  0.54320947  0.44793110  0.82124120    -0.76700
Al1127     Al  0.53076564  0.39751682  0.83282740     1.49000
C1128       C  0.53010048  0.46294840  0.79948778     0.90700
O1129       O  0.45445368  0.36382074  0.74846363    -0.82900
O1130       O  0.41777057  0.63233507  0.83979113    -0.76400
Al1131     Al  0.45459857  0.38591389  0.79702614     1.90100
O1132       O  0.44067785  0.63744543  0.77003083    -0.75500
O1133       O  0.48967446  0.64534811  0.86146225    -0.75400
O1134       O  0.51450215  0.65824077  0.78562254    -0.81000
O1135       O  0.54825436  0.69766734  0.85580954    -0.79200
O1136       O  0.48342889  0.69904598  0.81491507    -1.15400
O1137       O  0.50327267  0.40171362  0.87471565    -0.74600
C1138       C  0.47224958  0.40712087  0.87464602     0.96200
C1139       C  0.44468909  0.66004720  0.74358359     0.92600
Al1140     Al  0.46709307  0.64715658  0.81456831     1.55600
O1141       O  0.49819838  0.44020339  0.78174231    -0.79200
C1142       C  0.52717276  0.66253573  0.86714885     0.96700
C1143       C  0.39269424  0.64267125  0.82899226     0.91600
O1144       O  0.40349521  0.67281645  0.80830180    -0.84500
O1145       O  0.62352958  0.65816975  0.82510708    -0.84000
C1146       C  0.53685521  0.52382100  0.89984078     0.95400
O1147       O  0.52392898  0.54458675  0.88297430    -0.73100
O1148       O  0.53351961  0.60974866  0.84932498    -0.76700
Al1149     Al  0.54598810  0.57179462  0.83772185     1.49000
C1150       C  0.54663966  0.63788330  0.87106594     0.90700
O1151       O  0.62229440  0.61440655  0.92207057    -0.82900
O1152       O  0.32565754  0.58627893  0.83072633    -0.76400
Al1153     Al  0.62214907  0.63634948  0.87351280     1.90100
O1154       O  0.63611803  0.56850225  0.90050065    -0.75500
O1155       O  0.58707788  0.52735905  0.80908757    -0.75400
O1156       O  0.56229278  0.51546188  0.88493260    -0.81000
O1157       O  0.52850091  0.52113608  0.81472434    -0.79200
O1158       O  0.59332721  0.58732363  0.85562599    -1.15400
O1159       O  0.57347011  0.60349206  0.79583102    -0.74600
C1160       C  0.60448804  0.63991491  0.79589900     0.96200
C1161       C  0.63207494  0.58707374  0.92695015     0.92600
Al1162     Al  0.60968224  0.55177855  0.85596984     1.55600
O1163       O  0.57855067  0.64704401  0.88879909    -0.79200
C1164       C  0.54957782  0.50706644  0.80339771     0.96700
C1165       C  0.35072656  0.62168522  0.84152813     0.91600
O1166       O  0.33992159  0.64101698  0.86223580    -0.84500
O1167       O  0.38803558  0.42266238  0.01209172    -0.84000
C1168       C  0.52236953  0.50934820  0.93737079     0.95400
O1169       O  0.50161798  0.52229213  0.95423055    -0.73100
O1170       O  0.43644177  0.51269446  0.98785806    -0.76700
Al1171     Al  0.47440088  0.50024123  0.99948660     1.49000
C1172       C  0.40829985  0.49954739  0.96613370     0.90700
O1173       O  0.43180117  0.42390068  0.91514420    -0.82900
O1174       O  0.45989202  0.38719565  0.00650043    -0.76400
Al1175     Al  0.40985945  0.42404168  0.96369393     1.90100
O1176       O  0.47766733  0.41004676  0.93671579    -0.75500
O1177       O  0.51881998  0.45911656  0.02812122    -0.75400
O1178       O  0.53071016  0.48389146  0.95228322    -0.81000
O1179       O  0.52505313  0.51771545  0.02248602    -0.79200
O1180       O  0.45887043  0.45287873  0.98158588    -1.15400
O1181       O  0.44268499  0.47274547  0.04137603    -0.74600
C1182       C  0.40627017  0.44171529  0.04130111     0.96200
C1183       C  0.45911802  0.41411003  0.91026531     0.92600
Al1184     Al  0.49439319  0.43650163  0.98124599     1.55600
O1185       O  0.39915472  0.46762985  0.94840185    -0.79200
C1186       C  0.53912040  0.49662972  0.03380456     0.96700
C1187       C  0.42449933  0.36212450  0.99569674     0.91600
O1188       O  0.40519055  0.37292678  0.97496895    -0.84500
O1189       O  0.30652217  0.59298815  0.99178218    -0.84000
C1190       C  0.35409330  0.50622284  0.06649447     0.95400
O1191       O  0.32041978  0.49330120  0.04963344    -0.73100
O1192       O  0.59824248  0.50297722  0.01596436    -0.76700
Al1193     Al  0.31530287  0.51537343  0.00437510     1.49000
C1194       C  0.58323243  0.51610082  0.03771490     0.90700
O1195       O  0.34903147  0.59172299  0.08875848    -0.82900
O1196       O  0.41382693  0.62839542  0.99743935    -0.76400
Al1197     Al  0.32694320  0.59158960  0.04019430     1.90100
O1198       O  0.40870391  0.60545501  0.06718545    -0.75500
O1199       O  0.40078446  0.55649921  0.97573164    -0.75400
O1200       O  0.38787805  0.53160913  0.05155765    -0.81000
O1201       O  0.34851121  0.49789317  0.98140742    -0.79200
O1202       O  0.34711340  0.56272899  0.02229444    -1.15400
O1203       O  0.31113149  0.54289584  0.96249049    -0.74600
C1204       C  0.30573678  0.57393900  0.96256795     0.96200
C1205       C  0.38612111  0.60146814  0.09363445     0.92600
Al1206     Al  0.39898385  0.57905278  0.02263838     1.55600
O1207       O  0.60598430  0.54799862  0.05547597    -0.79200
C1208       C  0.38362708  0.51899114  0.97005692     0.96700
C1209       C  0.40350782  0.65348780  0.00823955     0.91600
O1210       O  0.37337174  0.64269749  0.02892526    -0.84500
O1211       O  0.30652198  0.35747124  0.17875505    -0.84000
C1212       C  0.35408807  0.49180338  0.10404946     0.95400
O1213       O  0.32040663  0.47105640  0.12090806    -0.73100
O1214       O  0.59822312  0.40586024  0.15456685    -0.76700
Al1215     Al  0.31527650  0.44386123  0.16616824     1.49000
C1216       C  0.58322708  0.37772494  0.13282458     0.90700
O1217       O  0.34904044  0.40125242  0.08178911    -0.82900
O1218       O  0.41380826  0.42934929  0.17311553    -0.76400
Al1219     Al  0.32695034  0.37929515  0.13034814     1.90100
O1220       O  0.40870648  0.44716807  0.10336329    -0.75500
O1221       O  0.40076381  0.48820654  0.19481149    -0.75400
O1222       O  0.38786773  0.50018962  0.11898764    -0.81000
O1223       O  0.34848582  0.49454611  0.18913499    -0.79200
O1224       O  0.34710122  0.42831662  0.14825061    -1.15400
O1225       O  0.31109969  0.41215597  0.20805152    -0.74600
C1226       C  0.30571861  0.37572370  0.20796995     0.96200
C1227       C  0.38612758  0.42858834  0.07691393     0.92600
Al1228     Al  0.39897130  0.46385071  0.14790893     1.55600
O1229       O  0.60599352  0.36858928  0.11506371    -0.79200
C1230       C  0.38360312  0.50856141  0.20048222     0.96700
C1231       C  0.40350080  0.39394641  0.16231403     0.91600
O1232       O  0.37338257  0.37461466  0.14161604    -0.84500
O1233       O  0.38803007  0.60931336  0.15845952    -0.84000
C1234       C  0.52235672  0.32358390  0.23316789     0.95400
O1235       O  0.50160925  0.28989088  0.21631269    -0.73100
O1236       O  0.43642634  0.56766684  0.18268560    -0.76700
Al1237     Al  0.47440036  0.61806909  0.17105455     1.49000
C1238       C  0.40827621  0.55267427  0.20440722     0.90700
O1239       O  0.43179368  0.31849073  0.25541002    -0.82900
O1240       O  0.45988299  0.38327674  0.16405516    -0.76400
Al1241     Al  0.40985010  0.29641337  0.20685910     1.90100
O1242       O  0.47766258  0.37819305  0.23383257    -0.75500
O1243       O  0.51879334  0.37026899  0.14241397    -0.75400
O1244       O  0.53070294  0.35737324  0.21824552    -0.81000
O1245       O  0.52506419  0.31792739  0.14806106    -0.79200
O1246       O  0.45886219  0.31657059  0.18895950    -1.15400
O1247       O  0.44268473  0.61386408  0.12916716    -0.74600
C1248       C  0.40626615  0.60848727  0.12924678     0.96200
C1249       C  0.45911234  0.35558901  0.26028545     0.92600
Al1250     Al  0.49438146  0.36846005  0.18929669     1.55600
O1251       O  0.39913477  0.57544923  0.22214790    -0.79200
C1252       C  0.53911607  0.35307291  0.13673708     0.96700
C1253       C  0.42449003  0.37296501  0.17486137     0.91600
O1254       O  0.40517944  0.34285977  0.19558958    -0.84500
O1255       O  0.62353643  0.60928821  0.34542891    -0.84000
C1256       C  0.53682573  0.32359382  0.27070370     0.95400
O1257       O  0.52391118  0.28991129  0.28757185    -0.73100
O1258       O  0.53353298  0.56769661  0.32123663    -0.76700
Al1259     Al  0.54597462  0.61810908  0.33282474     1.49000
C1260       C  0.54665079  0.55268109  0.29948698     0.90700
O1261       O  0.62229073  0.31847847  0.24846124    -0.82900
O1262       O  0.32562885  0.38329027  0.33979278    -0.76400
Al1263     Al  0.62215024  0.29638754  0.29702076     1.90100
O1264       O  0.63607381  0.37818783  0.27003269    -0.75500
O1265       O  0.58705181  0.37027407  0.36145935    -0.75400
O1266       O  0.56224203  0.35738826  0.28561636    -0.81000
O1267       O  0.52847562  0.31795071  0.35581231    -0.79200
O1268       O  0.59331271  0.31658286  0.31491177    -1.15400
O1269       O  0.57346527  0.61391056  0.37471145    -0.74600
C1270       C  0.60449411  0.60851139  0.37463983     0.96200
C1271       C  0.63205290  0.35558485  0.24358366     0.92600
Al1272     Al  0.60964544  0.36847099  0.31456675     1.55600
O1273       O  0.57855842  0.57542748  0.28174343    -0.79200
C1274       C  0.54955268  0.35308342  0.36714778     0.96700
C1275       C  0.35071127  0.37296136  0.32898915     0.91600
O1276       O  0.33991824  0.34282408  0.30829058    -0.84500
O1277       O  0.45319677  0.35745504  0.32511184    -0.84000
C1278       C  0.53988097  0.49180568  0.39984063     0.95400
O1279       O  0.55280239  0.47103796  0.38297345    -0.73100
O1280       O  0.54321107  0.40587279  0.34932526    -0.76700
Al1281     Al  0.53074663  0.44382792  0.33772144     1.49000
C1282       C  0.53008327  0.37773409  0.37106376     0.90700
O1283       O  0.45443436  0.40122143  0.42206942    -0.82900
O1284       O  0.41775133  0.42935045  0.33072279    -0.76400
Al1285     Al  0.45457664  0.37927528  0.37351503     1.90100
O1286       O  0.44060536  0.44711950  0.40049695    -0.75500
O1287       O  0.48967044  0.48827214  0.30908877    -0.75400
O1288       O  0.51443731  0.50016166  0.38493689    -0.81000
O1289       O  0.54824385  0.49448846  0.31472041    -0.79200
O1290       O  0.48340594  0.42830151  0.35562680    -1.15400
O1291       O  0.50326657  0.41212979  0.29583269    -0.74600
C1292       C  0.47224233  0.37570989  0.29590285     0.96200
C1293       C  0.44465598  0.42855595  0.42694725     0.92600
Al1294     Al  0.46705401  0.46384824  0.35596966     1.55600
O1295       O  0.49816722  0.36857112  0.38879544    -0.79200
C1296       C  0.52717133  0.50856250  0.30339710     0.96700
C1297       C  0.39267604  0.39394589  0.34152847     0.91600
O1298       O  0.40347283  0.37461480  0.36224331    -0.84500
O1299       O  0.68870743  0.59298766  0.51208364    -0.84000
C1300       C  0.55437157  0.50629417  0.43736655     0.95400
O1301       O  0.57512725  0.49335220  0.45422519    -0.73100
O1302       O  0.64029917  0.50294680  0.48784817    -0.76700
Al1303     Al  0.60234220  0.51540460  0.49948021     1.49000
C1304       C  0.66844910  0.51609837  0.46612699     0.90700
O1305       O  0.64494721  0.59174127  0.41513535    -0.82900
O1306       O  0.61684834  0.62844653  0.50649695    -0.76400
Al1307     Al  0.66688739  0.59160507  0.46368507     1.90100
O1308       O  0.59908497  0.60560346  0.43671174    -0.75500
O1309       O  0.55791533  0.55652390  0.52811626    -0.75400
O1310       O  0.54603725  0.53175421  0.45227654    -0.81000
O1311       O  0.55168788  0.49792668  0.52248543    -0.79200
O1312       O  0.61787401  0.56276663  0.48157957    -1.15400
O1313       O  0.63405652  0.54289942  0.54136985    -0.74600
C1314       C  0.67047133  0.57393048  0.54129434     0.96200
C1315       C  0.61762940  0.60153097  0.41025868     0.92600
Al1316     Al  0.58235051  0.57914305  0.48124140     1.55600
O1317       O  0.67759970  0.54801878  0.44839663    -0.79200
C1318       C  0.53761548  0.51901056  0.53380049     0.96700
C1319       C  0.65224207  0.65351938  0.49568996     0.91600
O1320       O  0.67155228  0.64271948  0.47495691    -0.84500
O1321       O  0.43688651  0.75598722  0.49177767    -0.84000
C1322       C  0.38930897  0.84274961  0.56648883     0.95400
O1323       O  0.42298598  0.85567343  0.54962492    -0.73100
O1324       O  0.47849791  0.84599317  0.51595257    -0.76700
Al1325     Al  0.42810720  0.83360282  0.50436676     1.49000
C1326       C  0.49350258  0.83287087  0.53770662     0.90700
O1327       O  0.39436492  0.75724931  0.58875050    -0.82900
O1328       O  0.66291739  0.72058295  0.49743411    -0.76400
Al1329     Al  0.41645889  0.75738406  0.54018786     1.90100
O1330       O  0.66802942  0.74351781  0.56718002    -0.75500
O1331       O  0.67596359  0.79248006  0.47572749    -0.75400
O1332       O  0.68886012  0.81736632  0.55155400    -0.81000
O1333       O  0.39490158  0.85108531  0.48140340    -0.79200
O1334       O  0.39629303  0.78624675  0.52228831    -1.15400
O1335       O  0.43227974  0.80607902  0.46248391    -0.74600
C1336       C  0.43767030  0.77503353  0.46256304     0.96200
C1337       C  0.35727512  0.74750400  0.59362741     0.92600
Al1338     Al  0.67775658  0.76992363  0.52263391     1.55600
O1339       O  0.47074675  0.80097359  0.55546938    -0.79200
C1340       C  0.69312181  0.82998835  0.47005255     0.96700
C1341       C  0.67323276  0.69548858  0.50823371     0.91600
O1342       O  0.70336444  0.70627641  0.52891923    -0.84500
O1343       O  0.43687539  0.99149338  0.67875385    -0.84000
C1344       C  0.38931243  0.85716559  0.60404488     0.95400
O1345       O  0.42299051  0.87790961  0.62090086    -0.73100
O1346       O  0.47850575  0.94310046  0.65455749    -0.76700
Al1347     Al  0.42811596  0.90510217  0.66616160     1.49000
C1348       C  0.49350711  0.97123928  0.63281731     0.90700
O1349       O  0.39436615  0.94772022  0.58178325    -0.82900
O1350       O  0.66291609  0.91961774  0.67311056    -0.76400
Al1351     Al  0.41645208  0.96967309  0.63034469     1.90100
O1352       O  0.66803048  0.90179948  0.60335815    -0.75500
O1353       O  0.67595678  0.86075943  0.69480915    -0.75400
O1354       O  0.68886358  0.84877749  0.61898670    -0.81000
O1355       O  0.39490124  0.85441761  0.68912999    -0.79200
O1356       O  0.39629530  0.92065015  0.64824662    -1.15400
O1357       O  0.43229127  0.93680545  0.70804706    -0.74600
C1358       C  0.43767872  0.97324013  0.70796783     0.96200
C1359       C  0.35727895  0.92038528  0.57690798     0.92600
Al1360     Al  0.67775758  0.88511675  0.64790578     1.55600
O1361       O  0.47074467  0.98037762  0.61505764    -0.79200
C1362       C  0.69311557  0.84040313  0.70047881     0.96700
C1363       C  0.67322939  0.95502247  0.66231009     0.91600
O1364       O  0.70335459  0.97435594  0.64161516    -0.84500
O1365       O  0.68869518  0.73966126  0.65845061    -0.84000
C1366       C  0.55437111  0.02538307  0.73316462     0.95400
O1367       O  0.57511426  0.72574182  0.71630896    -0.73100
O1368       O  0.64029966  0.78129932  0.68267761    -0.76700
Al1369     Al  0.60232410  0.73089811  0.67104968     1.49000
C1370       C  0.66844158  0.79629023  0.70440261     0.90700
O1371       O  0.64492811  0.69713897  0.75540259    -0.82900
O1372       O  0.61684608  0.96568897  0.66405330    -0.76400
Al1373     Al  0.66687195  0.71922199  0.70685046     1.90100
O1374       O  0.59905318  0.97077359  0.73383023    -0.75500
O1375       O  0.55794106  0.97869860  0.64240924    -0.75400
O1376       O  0.54601821  0.99159217  0.71823828    -0.81000
O1377       O  0.55166260  0.03103544  0.64806250    -0.79200
O1378       O  0.61786214  0.03239654  0.68895378    -1.15400
O1379       O  0.63404077  0.73510290  0.62916152    -0.74600
C1380       C  0.67046044  0.74048375  0.62923958     0.96200
C1381       C  0.61761093  0.99337382  0.76028054     0.92600
Al1382     Al  0.58234396  0.98050657  0.68929272     1.55600
O1383       O  0.67757753  0.77351400  0.72214485    -0.79200
C1384       C  0.53761704  0.99589295  0.63673384     0.96700
C1385       C  0.65223880  0.97600436  0.67485513     0.91600
O1386       O  0.67154844  0.00611390  0.69557591    -0.84500
O1387       O  0.45321258  0.73968199  0.84543619    -0.84000
C1388       C  0.53991203  0.02536716  0.77070554     0.95400
O1389       O  0.55283167  0.72571796  0.78757394    -0.73100
O1390       O  0.54320945  0.78126440  0.82124120    -0.76700
Al1391     Al  0.53076562  0.73085011  0.83282739     1.49000
C1392       C  0.53010047  0.79628171  0.79948778     0.90700
O1393       O  0.45445366  0.69715406  0.74846364    -0.82900
O1394       O  0.41777056  0.96566839  0.83979111    -0.76400
Al1395     Al  0.45459856  0.71924720  0.79702614     1.90100
O1396       O  0.44067784  0.97077876  0.77003083    -0.75500
O1397       O  0.48967449  0.97868156  0.86146227    -0.75400
O1398       O  0.51450218  0.99157414  0.78562254    -0.81000
O1399       O  0.54825442  0.03100073  0.85580952    -0.79200
O1400       O  0.48342890  0.03237934  0.81491505    -1.15400
O1401       O  0.50327267  0.73504691  0.87471564    -0.74600
C1402       C  0.47224956  0.74045418  0.87464600     0.96200
C1403       C  0.44468908  0.99338053  0.74358359     0.92600
Al1404     Al  0.46709308  0.98048993  0.81456831     1.55600
O1405       O  0.49819837  0.77353669  0.78174231    -0.79200
C1406       C  0.52717280  0.99586913  0.86714884     0.96700
C1407       C  0.39269426  0.97600459  0.82899225     0.91600
O1408       O  0.40349525  0.00614983  0.80830182    -0.84500
O1409       O  0.62352957  0.99150307  0.82510709    -0.84000
C1410       C  0.53685520  0.85715431  0.89984077     0.95400
O1411       O  0.52392899  0.87792009  0.88297430    -0.73100
O1412       O  0.53351961  0.94308202  0.84932503    -0.76700
Al1413     Al  0.54598814  0.90512800  0.83772188     1.49000
C1414       C  0.54663968  0.97121670  0.87106596     0.90700
O1415       O  0.62229455  0.94773994  0.92207058    -0.82900
O1416       O  0.32565756  0.91961232  0.83072636    -0.76400
Al1417     Al  0.62214912  0.96968288  0.87351281     1.90100
O1418       O  0.63611804  0.90183555  0.90050066    -0.75500
O1419       O  0.58707788  0.86069240  0.80908757    -0.75400
O1420       O  0.56229279  0.84879523  0.88493260    -0.81000
O1421       O  0.52850091  0.85446943  0.81472435    -0.79200
O1422       O  0.59332723  0.92065701  0.85562607    -1.15400
O1423       O  0.57347013  0.93682540  0.79583102    -0.74600
C1424       C  0.60448805  0.97324824  0.79589900     0.96200
C1425       C  0.63207498  0.92040708  0.92695016     0.92600
Al1426     Al  0.60968225  0.88511193  0.85596985     1.55600
O1427       O  0.57855074  0.98037746  0.88879907    -0.79200
C1428       C  0.54957781  0.84039977  0.80339773     0.96700
C1429       C  0.35072659  0.95501861  0.84152813     0.91600
O1430       O  0.33992164  0.97435040  0.86223577    -0.84500
O1431       O  0.38803557  0.75599569  0.01209174    -0.84000
C1432       C  0.52236950  0.84268149  0.93737078     0.95400
O1433       O  0.50161796  0.85562543  0.95423055    -0.73100
O1434       O  0.43644176  0.84602777  0.98785807    -0.76700
Al1435     Al  0.47440086  0.83357452  0.99948659     1.49000
C1436       C  0.40829984  0.83288070  0.96613368     0.90700
O1437       O  0.43180118  0.75723398  0.91514420    -0.82900
O1438       O  0.45989201  0.72052895  0.00650043    -0.76400
Al1439     Al  0.40985944  0.75737497  0.96369393     1.90100
O1440       O  0.47766734  0.74338005  0.93671579    -0.75500
O1441       O  0.51881996  0.79244986  0.02812122    -0.75400
O1442       O  0.53071015  0.81722476  0.95228322    -0.81000
O1443       O  0.52505312  0.85104875  0.02248602    -0.79200
O1444       O  0.45887042  0.78621203  0.98158587    -1.15400
O1445       O  0.44268499  0.80607879  0.04137603    -0.74600
C1446       C  0.40627013  0.77504860  0.04130110     0.96200
C1447       C  0.45911808  0.74744333  0.91026533     0.92600
Al1448     Al  0.49439318  0.76983492  0.98124600     1.55600
O1449       O  0.39915471  0.80096316  0.94840185    -0.79200
C1450       C  0.53912038  0.82996302  0.03380456     0.96700
C1451       C  0.42449932  0.69545779  0.99569674     0.91600
O1452       O  0.40519053  0.70626008  0.97496895    -0.84500
O1453       O  0.30652220  0.92632156  0.99178216    -0.84000
C1454       C  0.35409332  0.83955620  0.06649446     0.95400
O1455       O  0.32041981  0.82663464  0.04963347    -0.73100
O1456       O  0.59824247  0.83631053  0.01596437    -0.76700
Al1457     Al  0.31530286  0.84870678  0.00437510     1.49000
C1458       C  0.58323242  0.84943412  0.03771490     0.90700
O1459       O  0.34903144  0.92505627  0.08875846    -0.82900
O1460       O  0.41382690  0.96172875  0.99743929    -0.76400
Al1461     Al  0.32694315  0.92492294  0.04019429     1.90100
O1462       O  0.40870393  0.93878848  0.06718540    -0.75500
O1463       O  0.40078446  0.88983255  0.97573159    -0.75400
O1464       O  0.38787808  0.86494247  0.05155761    -0.81000
O1465       O  0.34851123  0.83122652  0.98140742    -0.79200
O1466       O  0.34711337  0.89606235  0.02229441    -1.15400
O1467       O  0.31113145  0.87622917  0.96249051    -0.74600
C1468       C  0.30573677  0.90727235  0.96256794     0.96200
C1469       C  0.38612110  0.93480148  0.09363443     0.92600
Al1470     Al  0.39898384  0.91238614  0.02263833     1.55600
O1471       O  0.60598428  0.88133194  0.05547596    -0.79200
C1472       C  0.38362710  0.85232449  0.97005690     0.96700
C1473       C  0.40350781  0.98682114  0.00823954     0.91600
O1474       O  0.37337172  0.97603081  0.02892525    -0.84500
O1475       O  0.30652196  0.69080454  0.17875505    -0.84000
C1476       C  0.35408807  0.82513670  0.10404945     0.95400
O1477       O  0.32040662  0.80438970  0.12090805    -0.73100
O1478       O  0.59822311  0.73919353  0.15456686    -0.76700
Al1479     Al  0.31527648  0.77719453  0.16616824     1.49000
C1480       C  0.58322706  0.71105823  0.13282459     0.90700
O1481       O  0.34904044  0.73458576  0.08178911    -0.82900
O1482       O  0.41380824  0.76268259  0.17311553    -0.76400
Al1483     Al  0.32695033  0.71262846  0.13034813     1.90100
O1484       O  0.40870648  0.78050140  0.10336330    -0.75500
O1485       O  0.40076380  0.82153986  0.19481150    -0.75400
O1486       O  0.38786771  0.83352292  0.11898765    -0.81000
O1487       O  0.34848580  0.82787942  0.18913500    -0.79200
O1488       O  0.34710121  0.76164992  0.14825062    -1.15400
O1489       O  0.31109967  0.74548928  0.20805151    -0.74600
C1490       C  0.30571861  0.70905703  0.20796995     0.96200
C1491       C  0.38612760  0.76192173  0.07691394     0.92600
Al1492     Al  0.39897128  0.79718401  0.14790894     1.55600
O1493       O  0.60599349  0.70192256  0.11506370    -0.79200
C1494       C  0.38360312  0.84189475  0.20048222     0.96700
C1495       C  0.40350078  0.72727971  0.16231403     0.91600
O1496       O  0.37338255  0.70794795  0.14161604    -0.84500
O1497       O  0.38803008  0.94264672  0.15845952    -0.84000
C1498       C  0.52235672  0.65691724  0.23316789     0.95400
O1499       O  0.50160924  0.62322419  0.21631269    -0.73100
O1500       O  0.43642634  0.90100018  0.18268561    -0.76700
Al1501     Al  0.47440036  0.95140241  0.17105455     1.49000
C1502       C  0.40827621  0.88600763  0.20440722     0.90700
O1503       O  0.43179373  0.65182410  0.25541001    -0.82900
O1504       O  0.45988297  0.71661005  0.16405516    -0.76400
Al1505     Al  0.40985010  0.62974668  0.20685910     1.90100
O1506       O  0.47766259  0.71152644  0.23383257    -0.75500
O1507       O  0.51879341  0.70360246  0.14241399    -0.75400
O1508       O  0.53070293  0.69070655  0.21824552    -0.81000
O1509       O  0.52506405  0.65126074  0.14806103    -0.79200
O1510       O  0.45886217  0.64990391  0.18895949    -1.15400
O1511       O  0.44268471  0.94719738  0.12916716    -0.74600
C1512       C  0.40626614  0.94182058  0.12924678     0.96200
C1513       C  0.45911238  0.68892240  0.26028544     0.92600
Al1514     Al  0.49438146  0.70179340  0.18929670     1.55600
O1515       O  0.39913479  0.90878262  0.22214789    -0.79200
C1516       C  0.53911604  0.68640627  0.13673707     0.96700
C1517       C  0.42449001  0.70629831  0.17486137     0.91600
O1518       O  0.40517943  0.67619306  0.19558958    -0.84500
O1519       O  0.62353643  0.94262152  0.34542891    -0.84000
C1520       C  0.53682572  0.65692716  0.27070371     0.95400
O1521       O  0.52391120  0.62324465  0.28757186    -0.73100
O1522       O  0.53353303  0.90103002  0.32123661    -0.76700
Al1523     Al  0.54597460  0.95144241  0.33282475     1.49000
C1524       C  0.54665080  0.88601443  0.29948698     0.90700
O1525       O  0.62229081  0.65181187  0.24846126    -0.82900
O1526       O  0.32562881  0.71662360  0.33979278    -0.76400
Al1527     Al  0.62215024  0.62972088  0.29702076     1.90100
O1528       O  0.63607364  0.71152117  0.27003268    -0.75500
O1529       O  0.58705180  0.70360736  0.36145936    -0.75400
O1530       O  0.56224202  0.69072163  0.28561638    -0.81000
O1531       O  0.52847560  0.65128401  0.35581231    -0.79200
O1532       O  0.59331269  0.64991618  0.31491176    -1.15400
O1533       O  0.57346525  0.94724386  0.37471145    -0.74600
C1534       C  0.60449413  0.94184474  0.37463983     0.96200
C1535       C  0.63205287  0.68891819  0.24358366     0.92600
Al1536     Al  0.60964540  0.70180431  0.31456676     1.55600
O1537       O  0.57855843  0.90876078  0.28174342    -0.79200
C1538       C  0.54955267  0.68641672  0.36714778     0.96700
C1539       C  0.35071121  0.70629464  0.32898918     0.91600
O1540       O  0.33991822  0.67615739  0.30829061    -0.84500
O1541       O  0.45319680  0.69078838  0.32511182    -0.84000
C1542       C  0.53988095  0.82513901  0.39984062     0.95400
O1543       O  0.55280227  0.80437123  0.38297348    -0.73100
O1544       O  0.54321105  0.73920610  0.34932525    -0.76700
Al1545     Al  0.53074659  0.77716124  0.33772145     1.49000
C1546       C  0.53008325  0.71106739  0.37106376     0.90700
O1547       O  0.45443433  0.73455475  0.42206942    -0.82900
O1548       O  0.41775118  0.76268378  0.33072282    -0.76400
Al1549     Al  0.45457662  0.71260859  0.37351502     1.90100
O1550       O  0.44060534  0.78045281  0.40049694    -0.75500
O1551       O  0.48967041  0.82160546  0.30908877    -0.75400
O1552       O  0.51443726  0.83349499  0.38493688    -0.81000
O1553       O  0.54824384  0.82782178  0.31472042    -0.79200
O1554       O  0.48340589  0.76163480  0.35562678    -1.15400
O1555       O  0.50326658  0.74546318  0.29583269    -0.74600
C1556       C  0.47224235  0.70904326  0.29590284     0.96200
C1557       C  0.44465600  0.76188926  0.42694727     0.92600
Al1558     Al  0.46705396  0.79718155  0.35596966     1.55600
O1559       O  0.49816720  0.70190442  0.38879544    -0.79200
C1560       C  0.52717132  0.84189583  0.30339713     0.96700
C1561       C  0.39267595  0.72727920  0.34152849     0.91600
O1562       O  0.40347278  0.70794811  0.36224328    -0.84500
O1563       O  0.68870742  0.92632097  0.51208364    -0.84000
C1564       C  0.55437158  0.83962757  0.43736653     0.95400
O1565       O  0.57512725  0.82668554  0.45422518    -0.73100
O1566       O  0.64029919  0.83628016  0.48784816    -0.76700
Al1567     Al  0.60234218  0.84873790  0.49948021     1.49000
C1568       C  0.66844914  0.84943177  0.46612702     0.90700
O1569       O  0.64494722  0.92507462  0.41513535    -0.82900
O1570       O  0.61684837  0.96177986  0.50649695    -0.76400
Al1571     Al  0.66688738  0.92493842  0.46368507     1.90100
O1572       O  0.59908497  0.93893680  0.43671174    -0.75500
O1573       O  0.55791531  0.88985720  0.52811626    -0.75400
O1574       O  0.54603726  0.86508755  0.45227655    -0.81000
O1575       O  0.55168786  0.83125998  0.52248543    -0.79200
O1576       O  0.61787400  0.89609994  0.48157957    -1.15400
O1577       O  0.63405650  0.87623271  0.54136985    -0.74600
C1578       C  0.67047132  0.90726378  0.54129434     0.96200
C1579       C  0.61762944  0.93486438  0.41025869     0.92600
Al1580     Al  0.58235051  0.91247637  0.48124140     1.55600
O1581       O  0.67759970  0.88135215  0.44839662    -0.79200
C1582       C  0.53761546  0.85234386  0.53380049     0.96700
C1583       C  0.65224209  0.98685275  0.49568997     0.91600
O1584       O  0.67155232  0.97605289  0.47495689    -0.84500
O1585       O  0.77021979  0.08932052  0.49177766    -0.84000
C1586       C  0.72264229  0.17608288  0.56648881     0.95400
O1587       O  0.75631934  0.18900666  0.54962495    -0.73100
O1588       O  0.81183133  0.17932658  0.51595256    -0.76700
Al1589     Al  0.76144058  0.16693613  0.50436677     1.49000
C1590       C  0.82683599  0.16620428  0.53770662     0.90700
O1591       O  0.72769834  0.09058272  0.58875051    -0.82900
O1592       O  0.99625061  0.05391626  0.49743415    -0.76400
Al1593     Al  0.74979227  0.09071741  0.54018787     1.90100
O1594       O  0.00136276  0.07685115  0.56718004    -0.75500
O1595       O  0.00929686  0.12581333  0.47572748    -0.75400
O1596       O  0.02219339  0.15069967  0.55155395    -0.81000
O1597       O  0.72823497  0.18441864  0.48140339    -0.79200
O1598       O  0.72962642  0.11958006  0.52228829    -1.15400
O1599       O  0.76561319  0.13941242  0.46248391    -0.74600
C1600       C  0.77100367  0.10836686  0.46256305     0.96200
C1601       C  0.69060851  0.08083741  0.59362740     0.92600
Al1602     Al  0.01108984  0.10325694  0.52263391     1.55600
O1603       O  0.80408016  0.13430698  0.55546936    -0.79200
C1604       C  0.02645503  0.16332162  0.47005257     0.96700
C1605       C  0.00656605  0.02882192  0.50823371     0.91600
O1606       O  0.03669776  0.03960976  0.52891919    -0.84500
O1607       O  0.77020878  0.32482671  0.67875386    -0.84000
C1608       C  0.72264578  0.19049884  0.60404486     0.95400
O1609       O  0.75632384  0.21124292  0.62090078    -0.73100
O1610       O  0.81183910  0.27643379  0.65455746    -0.76700
Al1611     Al  0.76144926  0.23843549  0.66616150     1.49000
C1612       C  0.82684047  0.30457267  0.63281731     0.90700
O1613       O  0.72769937  0.28105362  0.58178326    -0.82900
O1614       O  0.99624928  0.25295100  0.67311053    -0.76400
Al1615     Al  0.74978538  0.30300647  0.63034468     1.90100
O1616       O  0.00136390  0.23513288  0.60335815    -0.75500
O1617       O  0.00928997  0.19409277  0.69480912    -0.75400
O1618       O  0.02219685  0.18211084  0.61898667    -0.81000
O1619       O  0.72823462  0.18775091  0.68912995    -0.79200
O1620       O  0.72962864  0.25398351  0.64824655    -1.15400
O1621       O  0.76562459  0.27013873  0.70804700    -0.74600
C1622       C  0.77101213  0.30657346  0.70796780     0.96200
C1623       C  0.69061223  0.25371869  0.57690798     0.92600
Al1624     Al  0.01109090  0.21845011  0.64790577     1.55600
O1625       O  0.80407803  0.31371102  0.61505765    -0.79200
C1626       C  0.02644876  0.17373649  0.70047886     0.96700
C1627       C  0.00656267  0.28835575  0.66231008     0.91600
O1628       O  0.03668790  0.30768917  0.64161516    -0.84500
O1629       O  0.02202856  0.07299467  0.65845061    -0.84000
C1630       C  0.88770444  0.35871640  0.73316460     0.95400
O1631       O  0.90844766  0.05907522  0.71630899    -0.73100
O1632       O  0.97363301  0.11463260  0.68267757    -0.76700
Al1633     Al  0.93565744  0.06423152  0.67104967     1.49000
C1634       C  0.00177486  0.12962357  0.70440263     0.90700
O1635       O  0.97826135  0.03047233  0.75540259    -0.82900
O1636       O  0.95017943  0.29902231  0.66405333    -0.76400
Al1637     Al  0.00020530  0.05255538  0.70685048     1.90100
O1638       O  0.93238638  0.30410695  0.73383026    -0.75500
O1639       O  0.89127444  0.31203195  0.64240921    -0.75400
O1640       O  0.87935142  0.32492548  0.71823822    -0.81000
O1641       O  0.88499602  0.36436881  0.64806252    -0.79200
O1642       O  0.95119548  0.36572981  0.68895378    -1.15400
O1643       O  0.96737413  0.06843633  0.62916151    -0.74600
C1644       C  0.00379382  0.07381717  0.62923959     0.96200
C1645       C  0.95094431  0.32670717  0.76028054     0.92600
Al1646     Al  0.91567723  0.31383986  0.68929272     1.55600
O1647       O  0.01091084  0.10684739  0.72214491    -0.79200
C1648       C  0.87095042  0.32922630  0.63673383     0.96700
C1649       C  0.98557216  0.30933770  0.67485512     0.91600
O1650       O  0.00488184  0.33944723  0.69557592    -0.84500
O1651       O  0.78654592  0.07301541  0.84543619    -0.84000
C1652       C  0.87324536  0.35870050  0.77070553     0.95400
O1653       O  0.88616508  0.05905134  0.78757395    -0.73100
O1654       O  0.87654281  0.11459771  0.82124119    -0.76700
Al1655     Al  0.86409901  0.06418345  0.83282739     1.49000
C1656       C  0.86343384  0.12961505  0.79948779     0.90700
O1657       O  0.78778707  0.03048741  0.74846364    -0.82900
O1658       O  0.75110385  0.29900176  0.83979111    -0.76400
Al1659     Al  0.78793189  0.05258059  0.79702614     1.90100
O1660       O  0.77401112  0.30411211  0.77003084    -0.75500
O1661       O  0.82300774  0.31201485  0.86146226    -0.75400
O1662       O  0.84783553  0.32490748  0.78562256    -0.81000
O1663       O  0.88158769  0.36433400  0.85580953    -0.79200
O1664       O  0.81676224  0.36571270  0.81491507    -1.15400
O1665       O  0.83660595  0.06838015  0.87471562    -0.74600
C1666       C  0.80558293  0.07378751  0.87464602     0.96200
C1667       C  0.77802249  0.32671386  0.74358359     0.92600
Al1668     Al  0.80042638  0.31382328  0.81456831     1.55600
O1669       O  0.83153174  0.10687005  0.78174230    -0.79200
C1670       C  0.86050604  0.32920241  0.86714884     0.96700
C1671       C  0.72602750  0.30933791  0.82899225     0.91600
O1672       O  0.73682844  0.33948312  0.80830180    -0.84500
O1673       O  0.95686296  0.32483646  0.82510709    -0.84000
C1674       C  0.87018851  0.19048768  0.89984077     0.95400
O1675       O  0.85726230  0.21125340  0.88297429    -0.73100
O1676       O  0.86685295  0.27641537  0.84932495    -0.76700
Al1677     Al  0.87932148  0.23846132  0.83772187     1.49000
C1678       C  0.87997291  0.30454997  0.87106596     0.90700
O1679       O  0.95562777  0.28107326  0.92207059    -0.82900
O1680       O  0.65899087  0.25294558  0.83072636    -0.76400
Al1681     Al  0.95548240  0.30301619  0.87351284     1.90100
O1682       O  0.96945130  0.23516888  0.90050066    -0.75500
O1683       O  0.92041121  0.19402578  0.80908756    -0.75400
O1684       O  0.89562616  0.18212859  0.88493262    -0.81000
O1685       O  0.86183422  0.18780274  0.81472436    -0.79200
O1686       O  0.92666054  0.25399032  0.85562608    -1.15400
O1687       O  0.90680356  0.27015875  0.79583103    -0.74600
C1688       C  0.93782147  0.30658159  0.79589900     0.96200
C1689       C  0.96540826  0.25374040  0.92695014     0.92600
Al1690     Al  0.94301557  0.21844525  0.85596985     1.55600
O1691       O  0.91188392  0.31371072  0.88879912    -0.79200
C1692       C  0.88291114  0.17373311  0.80339775     0.96700
C1693       C  0.68405986  0.28835189  0.84152813     0.91600
O1694       O  0.67325489  0.30768367  0.86223575    -0.84500
O1695       O  0.72136892  0.08932903  0.01209174    -0.84000
C1696       C  0.85570282  0.17601481  0.93737077     0.95400
O1697       O  0.83495127  0.18895879  0.95423053    -0.73100
O1698       O  0.76977515  0.17936117  0.98785802    -0.76700
Al1699     Al  0.80773424  0.16690792  0.99948659     1.49000
C1700       C  0.74163321  0.16621413  0.96613369     0.90700
O1701       O  0.76513457  0.09056739  0.91514421    -0.82900
O1702       O  0.79322544  0.05386232  0.00650043    -0.76400
Al1703     Al  0.74319281  0.09070837  0.96369393     1.90100
O1704       O  0.81100075  0.07671346  0.93671579    -0.75500
O1705       O  0.85215340  0.12578326  0.02812121    -0.75400
O1706       O  0.86404346  0.15055813  0.95228322    -0.81000
O1707       O  0.85838651  0.18438213  0.02248600    -0.79200
O1708       O  0.79220379  0.11954541  0.98158589    -1.15400
O1709       O  0.77601829  0.13941219  0.04137604    -0.74600
C1710       C  0.73960350  0.10838201  0.04130114     0.96200
C1711       C  0.79245142  0.08077673  0.91026532     0.92600
Al1712     Al  0.82772658  0.10316832  0.98124599     1.55600
O1713       O  0.73248799  0.13429654  0.94840188    -0.79200
C1714       C  0.87245377  0.16329640  0.03380456     0.96700
C1715       C  0.75783273  0.02879117  0.99569674     0.91600
O1716       O  0.73852396  0.03959348  0.97496896    -0.84500
O1717       O  0.63985556  0.25965483  0.99178217    -0.84000
C1718       C  0.68742674  0.17288953  0.06649446     0.95400
O1719       O  0.65375317  0.15996789  0.04963342    -0.73100
O1720       O  0.93157583  0.16964394  0.01596441    -0.76700
Al1721     Al  0.64863625  0.18204014  0.00437511     1.49000
C1722       C  0.91656577  0.18276754  0.03771492     0.90700
O1723       O  0.68236489  0.25838970  0.08875846    -0.82900
O1724       O  0.74716037  0.29506213  0.99743936    -0.76400
Al1725     Al  0.66027658  0.25825631  0.04019430     1.90100
O1726       O  0.74203734  0.27212170  0.06718545    -0.75500
O1727       O  0.73411774  0.22316593  0.97573161    -0.75400
O1728       O  0.72121144  0.19827579  0.05155767    -0.81000
O1729       O  0.68184458  0.16455984  0.98140745    -0.79200
O1730       O  0.68044680  0.22939571  0.02229446    -1.15400
O1731       O  0.64446493  0.20956254  0.96249049    -0.74600
C1732       C  0.63907014  0.24060566  0.96256795     0.96200
C1733       C  0.71945450  0.26813483  0.09363445     0.92600
Al1734     Al  0.73231725  0.24571948  0.02263838     1.55600
O1735       O  0.93931759  0.21466537  0.05547595    -0.79200
C1736       C  0.71696042  0.18565785  0.97005693     0.96700
C1737       C  0.73684125  0.32015451  0.00823955     0.91600
O1738       O  0.70670515  0.30936419  0.02892524    -0.84500
O1739       O  0.63985537  0.02413793  0.17875505    -0.84000
C1740       C  0.68742133  0.15846999  0.10404945     0.95400
O1741       O  0.65373993  0.13772312  0.12090806    -0.73100
O1742       O  0.93155643  0.07252694  0.15456679    -0.76700
Al1743     Al  0.64860981  0.11052795  0.16616826     1.49000
C1744       C  0.91656039  0.04439157  0.13282459     0.90700
O1745       O  0.68237376  0.06791918  0.08178920    -0.82900
O1746       O  0.74714170  0.09601602  0.17311551    -0.76400
Al1747     Al  0.66028370  0.04596187  0.13034818     1.90100
O1748       O  0.74203986  0.11383475  0.10336331    -0.75500
O1749       O  0.73409725  0.15487325  0.19481149    -0.75400
O1750       O  0.72120104  0.16685624  0.11898766    -0.81000
O1751       O  0.68181925  0.16121281  0.18913498    -0.79200
O1752       O  0.68043459  0.09498334  0.14825065    -1.15400
O1753       O  0.64443304  0.07882265  0.20805151    -0.74600
C1754       C  0.63905197  0.04239045  0.20796998     0.96200
C1755       C  0.71946087  0.09525504  0.07691396     0.92600
Al1756     Al  0.73230469  0.13051740  0.14790893     1.55600
O1757       O  0.93932684  0.03525584  0.11506379    -0.79200
C1758       C  0.71693654  0.17522810  0.20048222     0.96700
C1759       C  0.73683421  0.06061313  0.16231400     0.91600
O1760       O  0.70671592  0.04128137  0.14161607    -0.84500
O1761       O  0.72136340  0.27598007  0.15845950    -0.84000
C1762       C  0.85569008  0.99025063  0.23316788     0.95400
O1763       O  0.83494257  0.95655756  0.21631268    -0.73100
O1764       O  0.76975975  0.23433354  0.18268563    -0.76700
Al1765     Al  0.80773369  0.28473581  0.17105458     1.49000
C1766       C  0.74160960  0.21934097  0.20440723     0.90700
O1767       O  0.76512696  0.98515744  0.25541001    -0.82900
O1768       O  0.79321637  0.04994344  0.16405519    -0.76400
Al1769     Al  0.74318341  0.96308007  0.20685908     1.90100
O1770       O  0.81099601  0.04485971  0.23383259    -0.75500
O1771       O  0.85212664  0.03693566  0.14241395    -0.75400
O1772       O  0.86403633  0.02403991  0.21824550    -0.81000
O1773       O  0.85839740  0.98459401  0.14806103    -0.79200
O1774       O  0.79219550  0.98323728  0.18895950    -1.15400
O1775       O  0.77601808  0.28053078  0.12916719    -0.74600
C1776       C  0.73959952  0.27515397  0.12924678     0.96200
C1777       C  0.79244568  0.02225571  0.26028544     0.92600
Al1778     Al  0.82771483  0.03512674  0.18929669     1.55600
O1779       O  0.73246806  0.24211591  0.22214784    -0.79200
C1780       C  0.87244936  0.01973955  0.13673707     0.96700
C1781       C  0.75782340  0.03963171  0.17486135     0.91600
O1782       O  0.73851278  0.00952649  0.19558957    -0.84500
O1783       O  0.95686982  0.27595491  0.34542891    -0.84000
C1784       C  0.87015901  0.99026042  0.27070371     0.95400
O1785       O  0.85724438  0.95657795  0.28757187    -0.73100
O1786       O  0.86686626  0.23436324  0.32123676    -0.76700
Al1787     Al  0.87930796  0.28477577  0.33282476     1.49000
C1788       C  0.87998408  0.21934775  0.29948707     0.90700
O1789       O  0.95562416  0.98514518  0.24846123    -0.82900
O1790       O  0.65896203  0.04995680  0.33979279    -0.76400
Al1791     Al  0.95548358  0.96305417  0.29702075     1.90100
O1792       O  0.96940700  0.04485445  0.27003269    -0.75500
O1793       O  0.92038520  0.03694071  0.36145935    -0.75400
O1794       O  0.89557541  0.02405489  0.28561637    -0.81000
O1795       O  0.86180901  0.98461738  0.35581234    -0.79200
O1796       O  0.92664600  0.98324944  0.31491176    -1.15400
O1797       O  0.90679864  0.28057727  0.37471145    -0.74600
C1798       C  0.93782746  0.27517810  0.37463985     0.96200
C1799       C  0.96538616  0.02225149  0.24358365     0.92600
Al1800     Al  0.94297875  0.03513758  0.31456676     1.55600
O1801       O  0.91189166  0.24209417  0.28174346    -0.79200
C1802       C  0.88288607  0.01975009  0.36714780     0.96700
C1803       C  0.68404454  0.03962800  0.32898914     0.91600
O1804       O  0.67325158  0.00949074  0.30829057    -0.84500
O1805       O  0.78653001  0.02412173  0.32511183    -0.84000
C1806       C  0.87321430  0.15847232  0.39984063     0.95400
O1807       O  0.88613569  0.13770462  0.38297343    -0.73100
O1808       O  0.87654437  0.07253939  0.34932518    -0.76700
Al1809     Al  0.86407989  0.11049457  0.33772143     1.49000
C1810       C  0.86341662  0.04440073  0.37106375     0.90700
O1811       O  0.78776780  0.06788819  0.42206941    -0.82900
O1812       O  0.75108459  0.09601715  0.33072278    -0.76400
Al1813     Al  0.78790997  0.04594198  0.37351504     1.90100
O1814       O  0.77393862  0.11378612  0.40049694    -0.75500
O1815       O  0.82300378  0.15493882  0.30908877    -0.75400
O1816       O  0.84777053  0.16682823  0.38493697    -0.81000
O1817       O  0.88157719  0.16115515  0.31472044    -0.79200
O1818       O  0.81673924  0.09496817  0.35562681    -1.15400
O1819       O  0.83659978  0.07879651  0.29583269    -0.74600
C1820       C  0.80557555  0.04237658  0.29590285     0.96200
C1821       C  0.77798937  0.09522266  0.42694725     0.92600
Al1822     Al  0.80038731  0.13051490  0.35596967     1.55600
O1823       O  0.83150060  0.03523780  0.38879545    -0.79200
C1824       C  0.86050466  0.17522918  0.30339712     0.96700
C1825       C  0.72600930  0.06061260  0.34152850     0.91600
O1826       O  0.73680611  0.04128153  0.36224334    -0.84500
O1827       O  0.02204081  0.25965429  0.51208365    -0.84000
C1828       C  0.88770498  0.17296087  0.43736655     0.95400
O1829       O  0.90846067  0.16001889  0.45422523    -0.73100
O1830       O  0.97363247  0.16961352  0.48784819    -0.76700
Al1831     Al  0.93567556  0.18207128  0.49948028     1.49000
C1832       C  0.00178236  0.18276504  0.46612698     0.90700
O1833       O  0.97828062  0.25840799  0.41513535    -0.82900
O1834       O  0.95018167  0.29511319  0.50649694    -0.76400
Al1835     Al  0.00022077  0.25827176  0.46368509     1.90100
O1836       O  0.93241833  0.27227011  0.43671175    -0.75500
O1837       O  0.89124871  0.22319058  0.52811626    -0.75400
O1838       O  0.87937062  0.19842085  0.45227654    -0.81000
O1839       O  0.88502126  0.16459336  0.52248547    -0.79200
O1840       O  0.95120738  0.22943330  0.48157959    -1.15400
O1841       O  0.96738985  0.20956614  0.54136992    -0.74600
C1842       C  0.00380469  0.24059712  0.54129437     0.96200
C1843       C  0.95096282  0.26819766  0.41025867     0.92600
Al1844     Al  0.91568386  0.24580969  0.48124140     1.55600
O1845       O  0.01093304  0.21468548  0.44839665    -0.79200
C1846       C  0.87094885  0.18567724  0.53380051     0.96700
C1847       C  0.98557539  0.32018605  0.49568995     0.91600
O1848       O  0.00488565  0.30938617  0.47495693    -0.84500
O1849       O  0.77021972  0.42265381  0.49177767    -0.84000
C1850       C  0.72264228  0.50941623  0.56648881     0.95400
O1851       O  0.75631933  0.52233997  0.54962494    -0.73100
O1852       O  0.81183131  0.51265987  0.51595256    -0.76700
Al1853     Al  0.76144056  0.50026943  0.50436676     1.49000
C1854       C  0.82683596  0.49953757  0.53770662     0.90700
O1855       O  0.72769830  0.42391603  0.58875051    -0.82900
O1856       O  0.99625060  0.38724956  0.49743415    -0.76400
Al1857     Al  0.74979220  0.42405071  0.54018787     1.90100
O1858       O  0.00136276  0.41018445  0.56718004    -0.75500
O1859       O  0.00929685  0.45914663  0.47572748    -0.75400
O1860       O  0.02219338  0.48403298  0.55155397    -0.81000
O1861       O  0.72823495  0.51775194  0.48140339    -0.79200
O1862       O  0.72962636  0.45291337  0.52228829    -1.15400
O1863       O  0.76561317  0.47274572  0.46248391    -0.74600
C1864       C  0.77100364  0.44170016  0.46256306     0.96200
C1865       C  0.69060847  0.41417070  0.59362740     0.92600
Al1866     Al  0.01108982  0.43659024  0.52263391     1.55600
O1867       O  0.80408011  0.46764027  0.55546936    -0.79200
C1868       C  0.02645504  0.49665492  0.47005257     0.96700
C1869       C  0.00656607  0.36215524  0.50823370     0.91600
O1870       O  0.03669778  0.37294310  0.52891919    -0.84500
O1871       O  0.77020878  0.65816006  0.67875385    -0.84000
C1872       C  0.72264584  0.52383229  0.60404486     0.95400
O1873       O  0.75632387  0.54457626  0.62090084    -0.73100
O1874       O  0.81183908  0.60976710  0.65455749    -0.76700
Al1875     Al  0.76144929  0.57176882  0.66616159     1.49000
C1876       C  0.82684044  0.63790595  0.63281731     0.90700
O1877       O  0.72769937  0.61438694  0.58178327    -0.82900
O1878       O  0.99624936  0.58628442  0.67311051    -0.76400
Al1879     Al  0.74978539  0.63633979  0.63034469     1.90100
O1880       O  0.00136391  0.56846619  0.60335814    -0.75500
O1881       O  0.00929002  0.52742610  0.69480915    -0.75400
O1882       O  0.02219696  0.51544416  0.61898671    -0.81000
O1883       O  0.72823461  0.52108423  0.68913000    -0.79200
O1884       O  0.72962865  0.58731685  0.64824659    -1.15400
O1885       O  0.76562464  0.60347211  0.70804705    -0.74600
C1886       C  0.77101215  0.63990681  0.70796782     0.96200
C1887       C  0.69061219  0.58705201  0.57690799     0.92600
Al1888     Al  0.01109093  0.55178344  0.64790578     1.55600
O1889       O  0.80407801  0.64704430  0.61505765    -0.79200
C1890       C  0.02644883  0.50706982  0.70047885     0.96700
C1891       C  0.00656271  0.62168915  0.66231006     0.91600
O1892       O  0.03668796  0.64102262  0.64161517    -0.84500
O1893       O  0.02202856  0.40632797  0.65845061    -0.84000
C1894       C  0.88770441  0.69204969  0.73316461     0.95400
O1895       O  0.90844772  0.39240854  0.71630898    -0.73100
O1896       O  0.97363306  0.44796602  0.68267755    -0.76700
Al1897     Al  0.93565751  0.39756481  0.67104968     1.49000
C1898       C  0.00177489  0.46295692  0.70440261     0.90700
O1899       O  0.97826155  0.36380564  0.75540258    -0.82900
O1900       O  0.95017941  0.63235562  0.66405333    -0.76400
Al1901     Al  0.00020534  0.38588869  0.70685046     1.90100
O1902       O  0.93238635  0.63744023  0.73383028    -0.75500
O1903       O  0.89127442  0.64536524  0.64240921    -0.75400
O1904       O  0.87935140  0.65825878  0.71823822    -0.81000
O1905       O  0.88499595  0.69770207  0.64806253    -0.79200
O1906       O  0.95119543  0.69906313  0.68895378    -1.15400
O1907       O  0.96737414  0.40176961  0.62916151    -0.74600
C1908       C  0.00379382  0.40715046  0.62923958     0.96200
C1909       C  0.95094429  0.66004046  0.76028056     0.92600
Al1910     Al  0.91567721  0.64717316  0.68929272     1.55600
O1911       O  0.01091082  0.44018069  0.72214491    -0.79200
C1912       C  0.87095039  0.66255958  0.63673382     0.96700
C1913       C  0.98557216  0.64267105  0.67485511     0.91600
O1914       O  0.00488181  0.67278054  0.69557593    -0.84500
O1915       O  0.78654588  0.40634869  0.84543620    -0.84000
C1916       C  0.87324534  0.69203379  0.77070553     0.95400
O1917       O  0.88616508  0.39238467  0.78757394    -0.73100
O1918       O  0.87654288  0.44793111  0.82124118    -0.76700
Al1919     Al  0.86409903  0.39751682  0.83282739     1.49000
C1920       C  0.86343385  0.46294839  0.79948779     0.90700
O1921       O  0.78778707  0.36382075  0.74846362    -0.82900
O1922       O  0.75110384  0.63233510  0.83979111    -0.76400
Al1923     Al  0.78793188  0.38591390  0.79702615     1.90100
O1924       O  0.77401110  0.63744541  0.77003084    -0.75500
O1925       O  0.82300772  0.64534815  0.86146226    -0.75400
O1926       O  0.84783551  0.65824077  0.78562256    -0.81000
O1927       O  0.88158767  0.69766729  0.85580953    -0.79200
O1928       O  0.81676222  0.69904599  0.81491507    -1.15400
O1929       O  0.83660604  0.40171364  0.87471561    -0.74600
C1930       C  0.80558295  0.40712088  0.87464602     0.96200
C1931       C  0.77802248  0.66004721  0.74358359     0.92600
Al1932     Al  0.80042636  0.64715658  0.81456831     1.55600
O1933       O  0.83153174  0.44020336  0.78174232    -0.79200
C1934       C  0.86050602  0.66253571  0.86714884     0.96700
C1935       C  0.72602751  0.64267127  0.82899226     0.91600
O1936       O  0.73682844  0.67281646  0.80830179    -0.84500
O1937       O  0.95686297  0.65816978  0.82510712    -0.84000
C1938       C  0.87018856  0.52382099  0.89984078     0.95400
O1939       O  0.85726227  0.54458670  0.88297429    -0.73100
O1940       O  0.86685292  0.60974866  0.84932496    -0.76700
Al1941     Al  0.87932146  0.57179462  0.83772190     1.49000
C1942       C  0.87997289  0.63788326  0.87106596     0.90700
O1943       O  0.95562778  0.61440660  0.92207059    -0.82900
O1944       O  0.65899089  0.58627890  0.83072635    -0.76400
Al1945     Al  0.95548239  0.63634950  0.87351284     1.90100
O1946       O  0.96945130  0.56850221  0.90050066    -0.75500
O1947       O  0.92041120  0.52735909  0.80908755    -0.75400
O1948       O  0.89562614  0.51546190  0.88493261    -0.81000
O1949       O  0.86183420  0.52113606  0.81472436    -0.79200
O1950       O  0.92666052  0.58732362  0.85562609    -1.15400
O1951       O  0.90680355  0.60349205  0.79583111    -0.74600
C1952       C  0.93782146  0.63991489  0.79589903     0.96200
C1953       C  0.96540830  0.58707379  0.92695015     0.92600
Al1954     Al  0.94301557  0.55177855  0.85596985     1.55600
O1955       O  0.91188390  0.64704402  0.88879912    -0.79200
C1956       C  0.88291112  0.50706644  0.80339772     0.96700
C1957       C  0.68405985  0.62168521  0.84152813     0.91600
O1958       O  0.67325486  0.64101697  0.86223577    -0.84500
O1959       O  0.72136892  0.42266233  0.01209172    -0.84000
C1960       C  0.85570289  0.50934820  0.93737079     0.95400
O1961       O  0.83495138  0.52229216  0.95423056    -0.73100
O1962       O  0.76977515  0.51269448  0.98785801    -0.76700
Al1963     Al  0.80773425  0.50024123  0.99948659     1.49000
C1964       C  0.74163320  0.49954743  0.96613369     0.90700
O1965       O  0.76513455  0.42390069  0.91514421    -0.82900
O1966       O  0.79322545  0.38719565  0.00650042    -0.76400
Al1967     Al  0.74319279  0.42404167  0.96369393     1.90100
O1968       O  0.81100073  0.41004676  0.93671579    -0.75500
O1969       O  0.85215338  0.45911656  0.02812121    -0.75400
O1970       O  0.86404349  0.48389143  0.95228320    -0.81000
O1971       O  0.85838649  0.51771543  0.02248602    -0.79200
O1972       O  0.79220378  0.45287872  0.98158588    -1.15400
O1973       O  0.77601828  0.47274550  0.04137603    -0.74600
C1974       C  0.73960350  0.44171531  0.04130112     0.96200
C1975       C  0.79245140  0.41411004  0.91026532     0.92600
Al1976     Al  0.82772657  0.43650162  0.98124599     1.55600
O1977       O  0.73248798  0.46762983  0.94840188    -0.79200
C1978       C  0.87245375  0.49662970  0.03380456     0.96700
C1979       C  0.75783275  0.36212450  0.99569673     0.91600
O1980       O  0.73852395  0.37292679  0.97496896    -0.84500
O1981       O  0.63985552  0.59298813  0.99178218    -0.84000
C1982       C  0.68742661  0.50622283  0.06649447     0.95400
O1983       O  0.65375316  0.49330120  0.04963344    -0.73100
O1984       O  0.93157581  0.50297723  0.01596440    -0.76700
Al1985     Al  0.64863623  0.51537343  0.00437511     1.49000
C1986       C  0.91656575  0.51610083  0.03771492     0.90700
O1987       O  0.68236487  0.59172301  0.08875846    -0.82900
O1988       O  0.74716032  0.62839543  0.99743940    -0.76400
Al1989     Al  0.66027654  0.59158960  0.04019429     1.90100
O1990       O  0.74203732  0.60545500  0.06718545    -0.75500
O1991       O  0.73411772  0.55649923  0.97573161    -0.75400
O1992       O  0.72121143  0.53160912  0.05155764    -0.81000
O1993       O  0.68184456  0.49789314  0.98140745    -0.79200
O1994       O  0.68044677  0.56272901  0.02229446    -1.15400
O1995       O  0.64446491  0.54289587  0.96249048    -0.74600
C1996       C  0.63907014  0.57393899  0.96256794     0.96200
C1997       C  0.71945448  0.60146813  0.09363445     0.92600
Al1998     Al  0.73231722  0.57905278  0.02263838     1.55600
O1999       O  0.93931757  0.54799867  0.05547595    -0.79200
C2000       C  0.71696041  0.51899115  0.97005693     0.96700
C2001       C  0.73684118  0.65348781  0.00823956     0.91600
O2002       O  0.70670504  0.64269749  0.02892519    -0.84500
O2003       O  0.63985536  0.35747124  0.17875506    -0.84000
C2004       C  0.68742145  0.49180341  0.10404946     0.95400
O2005       O  0.65373993  0.47105643  0.12090808    -0.73100
O2006       O  0.93155642  0.40586027  0.15456684    -0.76700
Al2007     Al  0.64860981  0.44386126  0.16616826     1.49000
C2008       C  0.91656041  0.37772494  0.13282459     0.90700
O2009       O  0.68237373  0.40125247  0.08178912    -0.82900
O2010       O  0.74714168  0.42934931  0.17311551    -0.76400
Al2011     Al  0.66028368  0.37929517  0.13034815     1.90100
O2012       O  0.74203982  0.44716802  0.10336329    -0.75500
O2013       O  0.73409722  0.48820653  0.19481149    -0.75400
O2014       O  0.72120105  0.50018957  0.11898764    -0.81000
O2015       O  0.68181924  0.49454611  0.18913498    -0.79200
O2016       O  0.68043457  0.42831664  0.14825064    -1.15400
O2017       O  0.64443302  0.41215596  0.20805151    -0.74600
C2018       C  0.63905195  0.37572371  0.20796995     0.96200
C2019       C  0.71946086  0.42858833  0.07691392     0.92600
Al2020     Al  0.73230468  0.46385070  0.14790893     1.55600
O2021       O  0.93932690  0.36858930  0.11506374    -0.79200
C2022       C  0.71693654  0.50856140  0.20048222     0.96700
C2023       C  0.73683418  0.39394642  0.16231400     0.91600
O2024       O  0.70671590  0.37461467  0.14161606    -0.84500
O2025       O  0.72136338  0.60931335  0.15845950    -0.84000
C2026       C  0.85569014  0.32358390  0.23316787     0.95400
O2027       O  0.83494261  0.28989089  0.21631268    -0.73100
O2028       O  0.76975975  0.56766682  0.18268558    -0.76700
Al2029     Al  0.80773368  0.61806913  0.17105457     1.49000
C2030       C  0.74160963  0.55267427  0.20440722     0.90700
O2031       O  0.76512693  0.31849075  0.25541001    -0.82900
O2032       O  0.79321635  0.38327673  0.16405520    -0.76400
Al2033     Al  0.74318339  0.29641337  0.20685908     1.90100
O2034       O  0.81099601  0.37819302  0.23383259    -0.75500
O2035       O  0.85212663  0.37026898  0.14241394    -0.75400
O2036       O  0.86403635  0.35737323  0.21824551    -0.81000
O2037       O  0.85839743  0.31792736  0.14806103    -0.79200
O2038       O  0.79219549  0.31657061  0.18895951    -1.15400
O2039       O  0.77601806  0.61386408  0.12916718    -0.74600
C2040       C  0.73959950  0.60848727  0.12924678     0.96200
C2041       C  0.79244566  0.35558901  0.26028544     0.92600
Al2042     Al  0.82771482  0.36846005  0.18929670     1.55600
O2043       O  0.73246819  0.57544924  0.22214790    -0.79200
C2044       C  0.87244937  0.35307289  0.13673706     0.96700
C2045       C  0.75782337  0.37296500  0.17486136     0.91600
O2046       O  0.73851275  0.34285977  0.19558957    -0.84500
O2047       O  0.95686979  0.60928820  0.34542891    -0.84000
C2048       C  0.87015914  0.32359382  0.27070369     0.95400
O2049       O  0.85724455  0.28991128  0.28757185    -0.73100
O2050       O  0.86686622  0.56769660  0.32123661    -0.76700
Al2051     Al  0.87930790  0.61810908  0.33282474     1.49000
C2052       C  0.87998409  0.55268110  0.29948700     0.90700
O2053       O  0.95562413  0.31847849  0.24846124    -0.82900
O2054       O  0.65896213  0.38329030  0.33979275    -0.76400
Al2055     Al  0.95548357  0.29638754  0.29702076     1.90100
O2056       O  0.96940703  0.37818781  0.27003267    -0.75500
O2057       O  0.92038521  0.37027407  0.36145936    -0.75400
O2058       O  0.89557542  0.35738826  0.28561638    -0.81000
O2059       O  0.86180900  0.31795073  0.35581231    -0.79200
O2060       O  0.92664606  0.31658285  0.31491178    -1.15400
O2061       O  0.90679861  0.61391054  0.37471143    -0.74600
C2062       C  0.93782744  0.60851139  0.37463984     0.96200
C2063       C  0.96538618  0.35558486  0.24358366     0.92600
Al2064     Al  0.94297879  0.36847099  0.31456676     1.55600
O2065       O  0.91189171  0.57542751  0.28174343    -0.79200
C2066       C  0.88288609  0.35308345  0.36714778     0.96700
C2067       C  0.68404455  0.37296137  0.32898915     0.91600
O2068       O  0.67325156  0.34282409  0.30829059    -0.84500
O2069       O  0.78652999  0.35745503  0.32511183    -0.84000
C2070       C  0.87321435  0.49180578  0.39984060     0.95400
O2071       O  0.88613566  0.47103798  0.38297343    -0.73100
O2072       O  0.87654444  0.40587282  0.34932523    -0.76700
Al2073     Al  0.86407987  0.44382791  0.33772145     1.49000
C2074       C  0.86341664  0.37773410  0.37106374     0.90700
O2075       O  0.78776779  0.40122148  0.42206941    -0.82900
O2076       O  0.75108459  0.42935046  0.33072279    -0.76400
Al2077     Al  0.78790996  0.37927528  0.37351504     1.90100
O2078       O  0.77393862  0.44711944  0.40049695    -0.75500
O2079       O  0.82300378  0.48827214  0.30908876    -0.75400
O2080       O  0.84777061  0.50016170  0.38493693    -0.81000
O2081       O  0.88157719  0.49448847  0.31472043    -0.79200
O2082       O  0.81673924  0.42830149  0.35562682    -1.15400
O2083       O  0.83659977  0.41212981  0.29583270    -0.74600
C2084       C  0.80557554  0.37570988  0.29590285     0.96200
C2085       C  0.77798936  0.42855595  0.42694725     0.92600
Al2086     Al  0.80038731  0.46384824  0.35596967     1.55600
O2087       O  0.83150059  0.36857111  0.38879542    -0.79200
C2088       C  0.86050466  0.50856251  0.30339710     0.96700
C2089       C  0.72600931  0.39394591  0.34152850     0.91600
O2090       O  0.73680610  0.37461482  0.36224334    -0.84500
O2091       O  0.02204081  0.59298763  0.51208364    -0.84000
C2092       C  0.88770499  0.50629423  0.43736653     0.95400
O2093       O  0.90846065  0.49335221  0.45422517    -0.73100
O2094       O  0.97363247  0.50294680  0.48784816    -0.76700
Al2095     Al  0.93567556  0.51540461  0.49948021     1.49000
C2096       C  0.00178240  0.51609835  0.46612698     0.90700
O2097       O  0.97828060  0.59174129  0.41513535    -0.82900
O2098       O  0.95018168  0.62844653  0.50649694    -0.76400
Al2099     Al  0.00022077  0.59160508  0.46368507     1.90100
O2100       O  0.93241834  0.60560346  0.43671174    -0.75500
O2101       O  0.89124871  0.55652390  0.52811626    -0.75400
O2102       O  0.87937064  0.53175421  0.45227656    -0.81000
O2103       O  0.88502126  0.49792667  0.52248543    -0.79200
O2104       O  0.95120737  0.56276664  0.48157956    -1.15400
O2105       O  0.96738984  0.54289947  0.54136986    -0.74600
C2106       C  0.00380470  0.57393049  0.54129434     0.96200
C2107       C  0.95096281  0.60153096  0.41025866     0.92600
Al2108     Al  0.91568386  0.57914305  0.48124140     1.55600
O2109       O  0.01093307  0.54801878  0.44839665    -0.79200
C2110       C  0.87094885  0.51901054  0.53380050     0.96700
C2111       C  0.98557539  0.65351938  0.49568994     0.91600
O2112       O  0.00488564  0.64271949  0.47495692    -0.84500
O2113       O  0.77021978  0.75598717  0.49177766    -0.84000
C2114       C  0.72264231  0.84274960  0.56648881     0.95400
O2115       O  0.75631937  0.85567343  0.54962492    -0.73100
O2116       O  0.81183130  0.84599318  0.51595257    -0.76700
Al2117     Al  0.76144060  0.83360282  0.50436676     1.49000
C2118       C  0.82683596  0.83287087  0.53770662     0.90700
O2119       O  0.72769831  0.75724932  0.58875051    -0.82900
O2120       O  0.99625062  0.72058292  0.49743415    -0.76400
Al2121     Al  0.74979225  0.75738404  0.54018787     1.90100
O2122       O  0.00136276  0.74351781  0.56718003    -0.75500
O2123       O  0.00929689  0.79248004  0.47572748    -0.75400
O2124       O  0.02219342  0.81736634  0.55155396    -0.81000
O2125       O  0.72823500  0.85108532  0.48140339    -0.79200
O2126       O  0.72962644  0.78624675  0.52228832    -1.15400
O2127       O  0.76561318  0.80607906  0.46248391    -0.74600
C2128       C  0.77100368  0.77503354  0.46256304     0.96200
C2129       C  0.69060848  0.74750401  0.59362740     0.92600
Al2130     Al  0.01108986  0.76992363  0.52263391     1.55600
O2131       O  0.80408013  0.80097358  0.55546937    -0.79200
C2132       C  0.02645509  0.82998833  0.47005257     0.96700
C2133       C  0.00656607  0.69548858  0.50823369     0.91600
O2134       O  0.03669776  0.70627643  0.52891918    -0.84500
O2135       O  0.77020876  0.99149338  0.67875385    -0.84000
C2136       C  0.72264585  0.85716561  0.60404485     0.95400
O2137       O  0.75632387  0.87790962  0.62090080    -0.73100
O2138       O  0.81183913  0.94310047  0.65455746    -0.76700
Al2139     Al  0.76144928  0.90510219  0.66616151     1.49000
C2140       C  0.82684048  0.97123937  0.63281731     0.90700
O2141       O  0.72769935  0.94772024  0.58178326    -0.82900
O2142       O  0.99624935  0.91961773  0.67311053    -0.76400
Al2143     Al  0.74978537  0.96967311  0.63034468     1.90100
O2144       O  0.00136388  0.90179949  0.60335814    -0.75500
O2145       O  0.00929001  0.86075940  0.69480915    -0.75400
O2146       O  0.02219682  0.84877745  0.61898668    -0.81000
O2147       O  0.72823464  0.85441758  0.68912996    -0.79200
O2148       O  0.72962862  0.92065018  0.64824656    -1.15400
O2149       O  0.76562465  0.93680545  0.70804700    -0.74600
C2150       C  0.77101214  0.97324014  0.70796780     0.96200
C2151       C  0.69061217  0.92038531  0.57690799     0.92600
Al2152     Al  0.01109089  0.88511675  0.64790578     1.55600
O2153       O  0.80407802  0.98037765  0.61505764    -0.79200
C2154       C  0.02644884  0.84040313  0.70047883     0.96700
C2155       C  0.00656270  0.95502247  0.66231007     0.91600
O2156       O  0.03668794  0.97435592  0.64161516    -0.84500
O2157       O  0.02202852  0.73966126  0.65845061    -0.84000
C2158       C  0.88770443  0.02538308  0.73316461     0.95400
O2159       O  0.90844764  0.72574184  0.71630898    -0.73100
O2160       O  0.97363303  0.78129930  0.68267757    -0.76700
Al2161     Al  0.93565742  0.73089813  0.67104967     1.49000
C2162       C  0.00177488  0.79629022  0.70440260     0.90700
O2163       O  0.97826152  0.69713893  0.75540259    -0.82900
O2164       O  0.95017942  0.96568898  0.66405334    -0.76400
Al2165     Al  0.00020530  0.71922198  0.70685046     1.90100
O2166       O  0.93238635  0.97077359  0.73383024    -0.75500
O2167       O  0.89127452  0.97869874  0.64240919    -0.75400
O2168       O  0.87935144  0.99159218  0.71823822    -0.81000
O2169       O  0.88499597  0.03103551  0.64806253    -0.79200
O2170       O  0.95119547  0.03239655  0.68895377    -1.15400
O2171       O  0.96737409  0.73510292  0.62916151    -0.74600
C2172       C  0.00379377  0.74048375  0.62923958     0.96200
C2173       C  0.95094417  0.99337382  0.76028054     0.92600
Al2174     Al  0.91567725  0.98050659  0.68929271     1.55600
O2175       O  0.01091080  0.77351398  0.72214491    -0.79200
C2176       C  0.87095044  0.99589301  0.63673382     0.96700
C2177       C  0.98557216  0.97600439  0.67485513     0.91600
O2178       O  0.00488182  0.00611391  0.69557592    -0.84500
O2179       O  0.78654587  0.73968198  0.84543620    -0.84000
C2180       C  0.87324536  0.02536716  0.77070553     0.95400
O2181       O  0.88616506  0.72571796  0.78757394    -0.73100
O2182       O  0.87654286  0.78126441  0.82124118    -0.76700
Al2183     Al  0.86409901  0.73085012  0.83282739     1.49000
C2184       C  0.86343384  0.79628170  0.79948779     0.90700
O2185       O  0.78778705  0.69715407  0.74846363    -0.82900
O2186       O  0.75110384  0.96566842  0.83979110    -0.76400
Al2187     Al  0.78793187  0.71924721  0.79702615     1.90100
O2188       O  0.77401109  0.97077874  0.77003084    -0.75500
O2189       O  0.82300775  0.97868159  0.86146227    -0.75400
O2190       O  0.84783553  0.99157414  0.78562256    -0.81000
O2191       O  0.88158773  0.03100068  0.85580952    -0.79200
O2192       O  0.81676224  0.03237935  0.81491505    -1.15400
O2193       O  0.83660602  0.73504694  0.87471561    -0.74600
C2194       C  0.80558293  0.74045417  0.87464602     0.96200
C2195       C  0.77802247  0.99338053  0.74358359     0.92600
Al2196     Al  0.80042637  0.98048994  0.81456831     1.55600
O2197       O  0.83153173  0.77353667  0.78174232    -0.79200
C2198       C  0.86050605  0.99586911  0.86714883     0.96700
C2199       C  0.72602752  0.97600462  0.82899225     0.91600
O2200       O  0.73682847  0.00614984  0.80830182    -0.84500
O2201       O  0.95686293  0.99150308  0.82510708    -0.84000
C2202       C  0.87018857  0.85715430  0.89984076     0.95400
O2203       O  0.85726229  0.87792006  0.88297429    -0.73100
O2204       O  0.86685293  0.94308202  0.84932499    -0.76700
Al2205     Al  0.87932149  0.90512799  0.83772188     1.49000
C2206       C  0.87997291  0.97121666  0.87106597     0.90700
O2207       O  0.95562776  0.94773993  0.92207058    -0.82900
O2208       O  0.65899090  0.91961230  0.83072638    -0.76400
Al2209     Al  0.95548240  0.96968288  0.87351282     1.90100
O2210       O  0.96945132  0.90183555  0.90050066    -0.75500
O2211       O  0.92041120  0.86069243  0.80908755    -0.75400
O2212       O  0.89562616  0.84879526  0.88493259    -0.81000
O2213       O  0.86183421  0.85446941  0.81472436    -0.79200
O2214       O  0.92666055  0.92065700  0.85562608    -1.15400
O2215       O  0.90680353  0.93682537  0.79583103    -0.74600
C2216       C  0.93782142  0.97324824  0.79589900     0.96200
C2217       C  0.96540828  0.92040713  0.92695016     0.92600
Al2218     Al  0.94301559  0.88511194  0.85596985     1.55600
O2219       O  0.91188396  0.98037747  0.88879908    -0.79200
C2220       C  0.88291112  0.84039976  0.80339773     0.96700
C2221       C  0.68405988  0.95501860  0.84152813     0.91600
O2222       O  0.67325492  0.97435040  0.86223574    -0.84500
O2223       O  0.72136891  0.75599565  0.01209174    -0.84000
C2224       C  0.85570291  0.84268150  0.93737079     0.95400
O2225       O  0.83495138  0.85562542  0.95423056    -0.73100
O2226       O  0.76977515  0.84602779  0.98785802    -0.76700
Al2227     Al  0.80773424  0.83357452  0.99948659     1.49000
C2228       C  0.74163319  0.83288076  0.96613368     0.90700
O2229       O  0.76513453  0.75723398  0.91514421    -0.82900
O2230       O  0.79322542  0.72052894  0.00650042    -0.76400
Al2231     Al  0.74319278  0.75737497  0.96369393     1.90100
O2232       O  0.81100072  0.74338006  0.93671579    -0.75500
O2233       O  0.85215336  0.79244985  0.02812121    -0.75400
O2234       O  0.86404357  0.81722476  0.95228321    -0.81000
O2235       O  0.85838648  0.85104872  0.02248602    -0.79200
O2236       O  0.79220378  0.78621202  0.98158587    -1.15400
O2237       O  0.77601829  0.80607882  0.04137602    -0.74600
C2238       C  0.73960346  0.77504863  0.04130111     0.96200
C2239       C  0.79245138  0.74744334  0.91026532     0.92600
Al2240     Al  0.82772658  0.76983492  0.98124599     1.55600
O2241       O  0.73248795  0.80096315  0.94840188    -0.79200
C2242       C  0.87245374  0.82996299  0.03380456     0.96700
C2243       C  0.75783271  0.69545780  0.99569674     0.91600
O2244       O  0.73852393  0.70626009  0.97496895    -0.84500
O2245       O  0.63985560  0.92632155  0.99178217    -0.84000
C2246       C  0.68742664  0.83955621  0.06649449     0.95400
O2247       O  0.65375316  0.82663463  0.04963345    -0.73100
O2248       O  0.93157580  0.83631054  0.01596441    -0.76700
Al2249     Al  0.64863622  0.84870678  0.00437510     1.49000
C2250       C  0.91656574  0.84943414  0.03771492     0.90700
O2251       O  0.68236486  0.92505628  0.08875846    -0.82900
O2252       O  0.74716031  0.96172876  0.99743939    -0.76400
Al2253     Al  0.66027655  0.92492294  0.04019429     1.90100
O2254       O  0.74203737  0.93878848  0.06718544    -0.75500
O2255       O  0.73411780  0.88983264  0.97573162    -0.75400
O2256       O  0.72121143  0.86494244  0.05155766    -0.81000
O2257       O  0.68184462  0.83122660  0.98140746    -0.79200
O2258       O  0.68044677  0.89606235  0.02229444    -1.15400
O2259       O  0.64446486  0.87622919  0.96249050    -0.74600
C2260       C  0.63907016  0.90727232  0.96256793     0.96200
C2261       C  0.71945449  0.93480147  0.09363445     0.92600
Al2262     Al  0.73231724  0.91238615  0.02263839     1.55600
O2263       O  0.93931756  0.88133198  0.05547594    -0.79200
C2264       C  0.71696047  0.85232458  0.97005692     0.96700
C2265       C  0.73684119  0.98682115  0.00823956     0.91600
O2266       O  0.70670504  0.97603081  0.02892520    -0.84500
O2267       O  0.63985534  0.69080454  0.17875506    -0.84000
C2268       C  0.68742137  0.82513672  0.10404947     0.95400
O2269       O  0.65373988  0.80438973  0.12090807    -0.73100
O2270       O  0.93155641  0.73919357  0.15456683    -0.76700
Al2271     Al  0.64860979  0.77719456  0.16616826     1.49000
C2272       C  0.91656041  0.71105825  0.13282460     0.90700
O2273       O  0.68237373  0.73458581  0.08178911    -0.82900
O2274       O  0.74714166  0.76268261  0.17311551    -0.76400
Al2275     Al  0.66028367  0.71262847  0.13034815     1.90100
O2276       O  0.74203982  0.78050136  0.10336329    -0.75500
O2277       O  0.73409722  0.82153986  0.19481149    -0.75400
O2278       O  0.72120099  0.83352287  0.11898764    -0.81000
O2279       O  0.68181922  0.82787941  0.18913498    -0.79200
O2280       O  0.68043455  0.76164994  0.14825064    -1.15400
O2281       O  0.64443301  0.74548928  0.20805150    -0.74600
C2282       C  0.63905195  0.70905706  0.20796996     0.96200
C2283       C  0.71946087  0.76192173  0.07691393     0.92600
Al2284     Al  0.73230466  0.79718401  0.14790893     1.55600
O2285       O  0.93932688  0.70192259  0.11506373    -0.79200
C2286       C  0.71693652  0.84189474  0.20048222     0.96700
C2287       C  0.73683416  0.72727972  0.16231400     0.91600
O2288       O  0.70671588  0.70794797  0.14161606    -0.84500
O2289       O  0.72136339  0.94264673  0.15845950    -0.84000
C2290       C  0.85569005  0.65691725  0.23316789     0.95400
O2291       O  0.83494256  0.62322420  0.21631269    -0.73100
O2292       O  0.76975973  0.90100019  0.18268564    -0.76700
Al2293     Al  0.80773368  0.95140245  0.17105458     1.49000
C2294       C  0.74160958  0.88600762  0.20440723     0.90700
O2295       O  0.76512699  0.65182413  0.25541000    -0.82900
O2296       O  0.79321633  0.71661004  0.16405519    -0.76400
Al2297     Al  0.74318340  0.62974668  0.20685909     1.90100
O2298       O  0.81099602  0.71152642  0.23383258    -0.75500
O2299       O  0.85212671  0.70360240  0.14241397    -0.75400
O2300       O  0.86403630  0.69070654  0.21824550    -0.81000
O2301       O  0.85839740  0.65126071  0.14806102    -0.79200
O2302       O  0.79219549  0.64990393  0.18895950    -1.15400
O2303       O  0.77601804  0.94719737  0.12916719    -0.74600
C2304       C  0.73959949  0.94182057  0.12924678     0.96200
C2305       C  0.79244573  0.68892238  0.26028544     0.92600
Al2306     Al  0.82771482  0.70179339  0.18929670     1.55600
O2307       O  0.73246806  0.90878259  0.22214784    -0.79200
C2308       C  0.87244937  0.68640624  0.13673705     0.96700
C2309       C  0.75782335  0.70629829  0.17486135     0.91600
O2310       O  0.73851273  0.67619306  0.19558957    -0.84500
O2311       O  0.95686979  0.94262151  0.34542891    -0.84000
C2312       C  0.87015905  0.65692716  0.27070371     0.95400
O2313       O  0.85724442  0.62324467  0.28757189    -0.73100
O2314       O  0.86686627  0.90103000  0.32123660    -0.76700
Al2315     Al  0.87930788  0.95144238  0.33282475     1.49000
C2316       C  0.87998410  0.88601444  0.29948700     0.90700
O2317       O  0.95562418  0.65181187  0.24846125    -0.82900
O2318       O  0.65896213  0.71662361  0.33979275    -0.76400
Al2319     Al  0.95548358  0.62972087  0.29702076     1.90100
O2320       O  0.96940703  0.71152117  0.27003268    -0.75500
O2321       O  0.92038520  0.70360737  0.36145936    -0.75400
O2322       O  0.89557544  0.69072163  0.28561635    -0.81000
O2323       O  0.86180899  0.65128403  0.35581233    -0.79200
O2324       O  0.92664602  0.64991616  0.31491176    -1.15400
O2325       O  0.90679860  0.94724385  0.37471144    -0.74600
C2326       C  0.93782746  0.94184474  0.37463984     0.96200
C2327       C  0.96538619  0.68891821  0.24358366     0.92600
Al2328     Al  0.94297878  0.70180431  0.31456676     1.55600
O2329       O  0.91189172  0.90876081  0.28174342    -0.79200
C2330       C  0.88288608  0.68641675  0.36714778     0.96700
C2331       C  0.68404455  0.70629464  0.32898918     0.91600
O2332       O  0.67325155  0.67615739  0.30829060    -0.84500
O2333       O  0.78653007  0.69078837  0.32511182    -0.84000
C2334       C  0.87321433  0.82513901  0.39984062     0.95400
O2335       O  0.88613562  0.80437125  0.38297345    -0.73100
O2336       O  0.87654442  0.73920612  0.34932523    -0.76700
Al2337     Al  0.86407987  0.77716123  0.33772146     1.49000
C2338       C  0.86341663  0.71106740  0.37106374     0.90700
O2339       O  0.78776776  0.73455479  0.42206942    -0.82900
O2340       O  0.75108458  0.76268376  0.33072280    -0.76400
Al2341     Al  0.78790998  0.71260859  0.37351503     1.90100
O2342       O  0.77393860  0.78045274  0.40049693    -0.75500
O2343       O  0.82300376  0.82160545  0.30908876    -0.75400
O2344       O  0.84777057  0.83349497  0.38493693    -0.81000
O2345       O  0.88157717  0.82782179  0.31472044    -0.79200
O2346       O  0.81673923  0.76163480  0.35562682    -1.15400
O2347       O  0.83659981  0.74546319  0.29583270    -0.74600
C2348       C  0.80557565  0.70904325  0.29590284     0.96200
C2349       C  0.77798937  0.76188927  0.42694727     0.92600
Al2350     Al  0.80038730  0.79718153  0.35596967     1.55600
O2351       O  0.83150059  0.70190442  0.38879542    -0.79200
C2352       C  0.86050465  0.84189584  0.30339713     0.96700
C2353       C  0.72600933  0.72727920  0.34152850     0.91600
O2354       O  0.73680617  0.70794811  0.36224330    -0.84500
O2355       O  0.02204080  0.92632094  0.51208364    -0.84000
C2356       C  0.88770498  0.83962759  0.43736652     0.95400
O2357       O  0.90846065  0.82668554  0.45422517    -0.73100
O2358       O  0.97363249  0.83628016  0.48784815    -0.76700
Al2359     Al  0.93567554  0.84873792  0.49948021     1.49000
C2360       C  0.00178244  0.84943175  0.46612701     0.90700
O2361       O  0.97828061  0.92507464  0.41513535    -0.82900
O2362       O  0.95018170  0.96177986  0.50649694    -0.76400
Al2363     Al  0.00022077  0.92493842  0.46368507     1.90100
O2364       O  0.93241834  0.93893681  0.43671174    -0.75500
O2365       O  0.89124870  0.88985720  0.52811626    -0.75400
O2366       O  0.87937064  0.86508753  0.45227655    -0.81000
O2367       O  0.88502124  0.83125997  0.52248543    -0.79200
O2368       O  0.95120736  0.89609995  0.48157956    -1.15400
O2369       O  0.96738983  0.87623276  0.54136986    -0.74600
C2370       C  0.00380468  0.90726379  0.54129434     0.96200
C2371       C  0.95096285  0.93486437  0.41025867     0.92600
Al2372     Al  0.91568386  0.91247637  0.48124140     1.55600
O2373       O  0.01093307  0.88135215  0.44839664    -0.79200
C2374       C  0.87094884  0.85234385  0.53380049     0.96700
C2375       C  0.98557540  0.98685275  0.49568994     0.91600
O2376       O  0.00488568  0.97605289  0.47495691    -0.84500
loop_ 
_geom_bond_atom_site_label_1 
_geom_bond_atom_site_label_2 
_geom_bond_distance 
_geom_bond_site_symmetry_2 
_ccdc_geom_bond_type 
O1           C16   1.286       .  A
O1           Al9   1.950       .  S
C2            O3   1.282       .  A
C2         O1596   1.285       .  A
C2           C24   1.483       .  S
O3           Al5   1.915       .  S
O4            C6   1.225       .  A
O4           Al5   1.787       .  S
Al5          O13   1.898       .  S
Al5          O15   1.911       .  S
Al5          O14   1.726       .  S
C6           O19   1.266       .  A
C6          C262   1.468       .  S
O7           C17   1.284       .  A
O7           Al9   1.969       .  S
O8           C21   1.267       .  A
O8          Al18   1.911       .  S
Al9          O19   1.982       .  S
Al9        O1606   1.913       .  S
Al9          O14   1.756       .  S
O10         C809   1.255       .  A
O10         Al18   1.857       .  S
O11          C20   1.258       .  A
O11         Al18   1.940       .  S
O12         C794   1.285       .  A
O12         Al18   1.953       .  S
O13        C1604   1.241       .  A
O14       Al1602   1.753       .  S
O15          C16   1.299       .  A
C16         C237   1.470       .  S
C17        O1594   1.255       .  A
C17        C1644   1.471       .  S
Al18        O806   1.753       .  S
C20         O805   1.241       .  A
C20         C248   1.468       .  S
C21          O22   1.263       .  A
C21         C791   1.461   1_545  S
O22        Al801   1.913       .  S
O23          C38   1.286       .  A
O23         Al31   1.950       .  S
C24          O25   1.282       .  A
C24        O1618   1.285       .  A
O25         Al27   1.915       .  S
O26          C28   1.225       .  A
O26         Al27   1.787       .  S
Al27         O35   1.899       .  S
Al27         O37   1.912       .  S
Al27         O36   1.726       .  S
C28          O41   1.266       .  A
C28          C64   1.469       .  S
O29          C39   1.284       .  A
O29         Al31   1.969       .  S
O30          C43   1.267       .  A
O30         Al40   1.911       .  S
Al31         O41   1.982       .  S
Al31       O1628   1.913       .  S
Al31         O36   1.756       .  S
O32         C831   1.255       .  A
O32         Al40   1.857       .  S
O33          C42   1.258       .  A
O33         Al40   1.940       .  S
O34         C816   1.285       .  A
O34         Al40   1.953       .  S
O35        C1626   1.241       .  A
O36       Al1624   1.753       .  S
O37          C38   1.299       .  A
C38          C83   1.470       .  S
C39        O1616   1.255       .  A
C39        C1842   1.471       .  S
Al40        O828   1.753       .  S
C42         O827   1.241       .  A
C42          C50   1.468       .  S
C43          O44   1.263       .  A
C43          C65   1.461       .  S
O44        Al823   1.913       .  S
O45          C60   1.286       .  A
O45         Al53   1.950       .  S
C46          O56   1.285       .  A
C46         O311   1.282       .  A
C46          C68   1.483       .  S
O47         C574   1.282       .  A
O47         Al49   1.915       .  S
O48          C50   1.225       .  A
O48         Al49   1.787       .  S
Al49         O59   1.912       .  S
Al49        O585   1.899       .  S
Al49        O586   1.725       .  S
C50          O63   1.266       .  A
O51         C589   1.283   1_545  A
O51         Al53   1.969       .  S
O52          C65   1.267       .  A
O52         Al62   1.911       .  S
Al53         O63   1.981       .  S
Al53        O594   1.912       .  S
Al53        O586   1.756       .  S
O54          C61   1.255       .  A
O54         Al62   1.857       .  S
O55          C64   1.258       .  A
O55         Al62   1.940       .  S
O56         Al62   1.953       .  S
O57          C64   1.241       .  A
O57        Al313   1.899       .  S
O58         Al62   1.753       .  S
O58        Al313   1.725       .  S
O58        Al317   1.756       .  S
O59          C60   1.299       .  A
C60         C809   1.471       .  S
C61         O315   1.283       .  A
C61         C104   1.470       .  S
C65          O66   1.263       .  A
O66        Al317   1.912       .  S
O67          C82   1.286       .  A
O67         Al75   1.950       .  S
C68          O78   1.285       .  A
C68         O333   1.282       .  A
O69         C596   1.282       .  A
O69         Al71   1.915       .  S
O70          C72   1.225       .  A
O70         Al71   1.787       .  S
Al71         O81   1.911       .  S
Al71        O607   1.898       .  S
Al71        O608   1.725       .  S
C72          O85   1.266       .  A
C72         C108   1.468       .  S
O73         C611   1.284   1_545  A
O73         Al75   1.969       .  S
O74          C87   1.267       .  A
O74         Al84   1.912       .  S
Al75         O85   1.982       .  S
Al75        O616   1.913       .  S
Al75        O608   1.756       .  S
O76          C83   1.255       .  A
O76         Al84   1.857       .  S
O77          C86   1.258       .  A
O77         Al84   1.940       .  S
O78         Al84   1.953       .  S
O79          C86   1.240       .  A
O79        Al335   1.898       .  S
O80         Al84   1.753       .  S
O80        Al335   1.725       .  S
O80        Al339   1.756       .  S
O81          C82   1.299       .  A
C82         C127   1.470       .  S
C83         O337   1.284       .  A
C86          C94   1.468       .  S
C87          O88   1.263       .  A
C87         C109   1.461       .  S
O88        Al339   1.913       .  S
O89         C104   1.286       .  A
O89         Al97   1.950       .  S
C90         O100   1.285       .  A
C90          O91   1.282       .  A
C90         C112   1.483       .  S
O91         Al93   1.915       .  S
O92          C94   1.225       .  A
O92         Al93   1.787       .  S
Al93        O101   1.898       .  S
Al93        O103   1.912       .  S
Al93        O102   1.725       .  S
C94         O107   1.266       .  A
O95         C105   1.283       .  A
O95         Al97   1.969       .  S
O96         C109   1.267   1_655  A
O96       Al1690   1.912       .  S
Al97        O107   1.982       .  S
Al97        O902   1.913       .  S
Al97        O102   1.756       .  S
O98         C105   1.255       .  A
O98        Al106   1.857       .  S
O99         C108   1.258       .  A
O99        Al106   1.940       .  S
O100       Al106   1.953       .  S
O101        C108   1.240       .  A
O102       Al106   1.753       .  S
O103        C104   1.299       .  A
C105        C940   1.470       .  S
Al106       O888   1.912       .  S
C109        O110   1.263       .  A
O110      Al1681   1.913   1_455  S
O111        C126   1.286       .  A
O111       Al119   1.950   1_554  S
C112        O122   1.285       .  A
C112        O113   1.282       .  A
O113       Al115   1.915       .  S
O114        C116   1.225       .  A
O114       Al115   1.787       .  S
Al115       O123   1.899   1_556  S
Al115       O125   1.912   1_556  S
Al115       O124   1.725       .  S
C116        O129   1.266       .  A
C116        C152   1.468       .  S
O117        C127   1.283       .  A
O117       Al119   1.969       .  S
O118        C131   1.267   1_554  A
O118       Al128   1.912   1_554  S
Al119       O132   1.912       .  S
Al119       O129   1.981       .  S
Al119       O124   1.756       .  S
O120        C127   1.255       .  A
O120       Al128   1.857       .  S
O121        C130   1.258       .  A
O121       Al128   1.940   1_554  S
O122       Al128   1.953       .  S
O123        C130   1.241       .  A
O124       Al128   1.753       .  S
O125        C126   1.299       .  A
C126        C171   1.471       .  S
C130        C138   1.469       .  S
C131        O132   1.263       .  A
C131        C681   1.461   1_546  S
O133        C148   1.286       .  A
O133       Al141   1.950   1_556  S
C134        O144   1.285       .  A
C134        O135   1.282   1_455  A
C134        C156   1.483       .  S
O135       Al137   1.915       .  S
O136        C138   1.225       .  A
O136       Al929   1.787       .  S
Al137       O145   1.898   1_654  S
Al137       O147   1.912   1_554  S
Al137      O1720   1.787       .  S
Al137       O146   1.726   1_655  S
C138        O151   1.266       .  A
O139        C149   1.284       .  A
O139       Al141   1.969   1_455  S
O140        C153   1.267   1_556  A
O140       Al150   1.911   1_556  S
Al141       O154   1.913   1_655  S
Al141      O1735   1.982       .  S
Al141       O146   1.756   1_655  S
O142        C149   1.255       .  A
O142       Al150   1.857       .  S
O143        C152   1.258       .  A
O143       Al150   1.940   1_556  S
O144       Al150   1.953       .  S
O145        C152   1.241       .  A
O146       Al150   1.753       .  S
O147        C148   1.299       .  A
C148       C1689   1.470       .  S
C149        C192   1.471       .  S
O151       Al933   1.982       .  S
C153        O154   1.263       .  A
C153        C395   1.461   1_554  S
O155        C170   1.286       .  A
O155       Al163   1.950       .  S
C156        O166   1.285       .  A
C156        O157   1.282   1_455  A
O157       Al159   1.915       .  S
O158        C160   1.225       .  A
O158       Al951   1.787       .  S
Al159       O167   1.899   1_655  S
Al159       O169   1.912       .  S
Al159      O1742   1.787       .  S
Al159       O168   1.726   1_655  S
C160        O173   1.266       .  A
C160        C196   1.469       .  S
O161        C171   1.284       .  A
O161       Al163   1.969   1_455  S
O162        C175   1.267       .  A
O162       Al172   1.911       .  S
Al163       O176   1.913   1_655  S
Al163      O1757   1.982       .  S
Al163       O168   1.756   1_655  S
O164        C171   1.255       .  A
O164       Al172   1.857       .  S
O165        C174   1.258       .  A
O165       Al172   1.940       .  S
O166       Al172   1.953       .  S
O167        C174   1.241       .  A
O168       Al172   1.753       .  S
O169        C170   1.299       .  A
C170       C1799   1.470       .  S
O173       Al955   1.982       .  S
C174        C182   1.468       .  S
C175        O176   1.263       .  A
C175        C197   1.461       .  S
O177        C192   1.286       .  A
O177       Al449   1.950       .  S
C178        O188   1.285   1_565  A
C178        O179   1.282       .  A
C178        C200   1.483       .  S
O179       Al709   1.915       .  S
O180        C182   1.225       .  A
O180       Al181   1.787       .  S
Al181       O191   1.912       .  S
Al181       O443   1.915       .  S
Al181       O453   1.899       .  S
Al181       O454   1.725       .  S
C182        O195   1.266       .  A
O183        C193   1.283   1_565  A
O183       Al185   1.969       .  S
O184        C197   1.267       .  A
O184       Al194   1.911       .  S
Al185       O198   1.912   1_565  S
Al185       O705   1.950       .  S
Al185       O723   1.981       .  S
Al185       O190   1.756       .  S
O186        C193   1.255       .  A
O186       Al194   1.857       .  S
O187        C196   1.258       .  A
O187       Al194   1.940       .  S
O188       Al194   1.953       .  S
O189        C196   1.241   1_565  A
O189       Al709   1.899       .  S
O190       Al194   1.753   1_565  S
O190       Al709   1.725       .  S
O191        C192   1.299       .  A
C193        C236   1.470       .  S
O195       Al449   1.981       .  S
C197        O198   1.263       .  A
O199        C214   1.286       .  A
O199       Al471   1.950       .  S
C200        O210   1.285   1_565  A
C200        O201   1.282       .  A
O201       Al731   1.915       .  S
O202        C204   1.225       .  A
O202       Al203   1.787       .  S
Al203       O213   1.912       .  S
Al203       O465   1.915       .  S
Al203       O475   1.898       .  S
Al203       O476   1.725       .  S
C204        O217   1.266       .  A
C204        C240   1.468       .  S
O205        C215   1.284   1_565  A
O205       Al207   1.969       .  S
O206        C219   1.267   1_655  A
O206      Al1800   1.912       .  S
Al207       O727   1.950       .  S
Al207      O1012   1.913   1_565  S
Al207       O745   1.982       .  S
Al207       O212   1.756       .  S
O208        C215   1.255       .  A
O208       Al216   1.857       .  S
O209        C218   1.258       .  A
O209       Al216   1.940       .  S
O210       Al216   1.953       .  S
O211        C218   1.240   1_565  A
O211       Al731   1.898       .  S
O212       Al216   1.753   1_565  S
O212       Al731   1.725       .  S
O213        C214   1.299       .  A
C214        C259   1.470       .  S
C215        C962   1.470       .  S
Al216       O998   1.912       .  S
O217       Al471   1.982       .  S
C218        C226   1.468       .  S
C219        O220   1.263       .  A
C219        C241   1.461       .  S
O220      Al1791   1.913   1_445  S
O221        C236   1.286       .  A
O221       Al229   1.950       .  S
C222        O232   1.285       .  A
C222        O223   1.282       .  A
C222        C244   1.483       .  S
O223       Al225   1.915       .  S
O224        C226   1.225       .  A
O224       Al225   1.787       .  S
Al225       O233   1.898       .  S
Al225       O235   1.912       .  S
Al225       O234   1.725       .  S
C226        O239   1.266       .  A
O227        C237   1.283       .  A
O227       Al229   1.969       .  S
O228        C241   1.267       .  A
O228       Al238   1.912       .  S
Al229       O242   1.913       .  S
Al229       O239   1.982       .  S
Al229       O234   1.756       .  S
O230        C237   1.255       .  A
O230       Al238   1.857       .  S
O231        C240   1.258       .  A
O231       Al238   1.940       .  S
O232       Al238   1.953       .  S
O233        C240   1.240       .  A
O234       Al238   1.753       .  S
O235        C236   1.299       .  A
C241        O242   1.263       .  A
O243        C258   1.286       .  A
O243       Al251   1.950       .  S
C244        O254   1.285       .  A
C244        O245   1.282       .  A
O245       Al247   1.915       .  S
O246        C248   1.225       .  A
O246       Al247   1.787       .  S
Al247       O255   1.899       .  S
Al247       O257   1.912       .  S
Al247       O256   1.725       .  S
C248        O261   1.266       .  A
O249        C259   1.283       .  A
O249       Al251   1.969       .  S
O250        C263   1.267       .  A
O250       Al260   1.912       .  S
Al251       O264   1.912       .  S
Al251       O261   1.981       .  S
Al251       O256   1.756       .  S
O252        C259   1.255       .  A
O252       Al260   1.857       .  S
O253        C262   1.258       .  A
O253       Al260   1.940       .  S
O254       Al260   1.953       .  S
O255        C262   1.241       .  A
O256       Al260   1.753       .  S
O257        C258   1.299       .  A
C258        C831   1.471       .  S
C263        O264   1.263       .  A
C263        C285   1.461       .  S
O265        C280   1.286       .  A
O265       Al273   1.950       .  S
C266       O1860   1.285       .  A
C266        O267   1.282       .  A
C266        C288   1.483       .  S
O267       Al269   1.915       .  S
O268        C270   1.225       .  A
O268       Al269   1.787       .  S
Al269       O277   1.898       .  S
Al269       O279   1.911       .  S
Al269       O278   1.726       .  S
C270        O283   1.266       .  A
C270        C526   1.468       .  S
O271        C281   1.284       .  A
O271       Al273   1.969       .  S
O272        C285   1.267       .  A
O272       Al282   1.911       .  S
Al273      O1870   1.913       .  S
Al273       O283   1.982       .  S
Al273       O278   1.756       .  S
O274       C1073   1.255       .  A
O274       Al282   1.857       .  S
O275        C284   1.258       .  A
O275       Al282   1.940       .  S
O276       C1058   1.285       .  A
O276       Al282   1.953       .  S
O277       C1868   1.241       .  A
O278      Al1866   1.753       .  S
O279        C280   1.299       .  A
C280        C501   1.470       .  S
C281       O1858   1.255       .  A
C281       C1908   1.471       .  S
Al282      O1070   1.753       .  S
C284       O1069   1.241       .  A
C284        C512   1.468       .  S
C285        O286   1.263       .  A
O286      Al1065   1.913       .  S
O287        C302   1.286       .  A
O287       Al295   1.950       .  S
C288       O1882   1.285       .  A
C288        O289   1.282       .  A
O289       Al291   1.915       .  S
O290        C292   1.225       .  A
O290       Al291   1.787       .  S
Al291       O299   1.899       .  S
Al291       O301   1.912       .  S
Al291       O300   1.726       .  S
C292        O305   1.266       .  A
C292        C328   1.469       .  S
O293        C303   1.284       .  A
O293       Al295   1.969       .  S
O294        C307   1.267       .  A
O294       Al304   1.911       .  S
Al295      O1892   1.913       .  S
Al295       O305   1.982       .  S
Al295       O300   1.756       .  S
O296       C1095   1.255       .  A
O296       Al304   1.857       .  S
O297        C306   1.258       .  A
O297       Al304   1.940       .  S
O298       C1080   1.285       .  A
O298       Al304   1.953       .  S
O299       C1890   1.241       .  A
O300      Al1888   1.753       .  S
O301        C302   1.299       .  A
C302        C347   1.470       .  S
C303       O1880   1.255       .  A
C303       C2106   1.471       .  S
Al304      O1092   1.753       .  S
C306       O1091   1.241       .  A
C306        C314   1.468       .  S
C307        O308   1.263       .  A
C307        C329   1.461       .  S
O308      Al1087   1.913       .  S
O309        C324   1.286       .  A
O309       Al317   1.950       .  S
C310        O320   1.285       .  A
C310        O575   1.282       .  A
C310        C332   1.483       .  S
O311       Al313   1.915       .  S
O312        C314   1.225       .  A
O312       Al313   1.787       .  S
Al313       O323   1.912       .  S
C314        O327   1.266       .  A
O315       Al317   1.969       .  S
O316        C329   1.267       .  A
O316       Al326   1.911       .  S
Al317       O327   1.981       .  S
O318        C325   1.255       .  A
O318       Al326   1.857       .  S
O319        C328   1.258       .  A
O319       Al326   1.940       .  S
O320       Al326   1.953       .  S
O321        C328   1.241       .  A
O321       Al577   1.899       .  S
O322       Al577   1.725       .  S
O322       Al581   1.756       .  S
O322       Al326   1.753       .  S
O323        C324   1.299       .  A
C324       C1073   1.471       .  S
C325        O579   1.283       .  A
C325        C368   1.470       .  S
C329        O330   1.263       .  A
O330       Al581   1.912       .  S
O331        C346   1.286       .  A
O331       Al339   1.950       .  S
C332        O342   1.285       .  A
C332        O597   1.282       .  A
O333       Al335   1.915       .  S
O334        C336   1.225       .  A
O334       Al335   1.787       .  S
Al335       O345   1.911       .  S
C336        O349   1.266       .  A
C336        C372   1.468       .  S
O337       Al339   1.969       .  S
O338        C351   1.267       .  A
O338       Al348   1.912       .  S
Al339       O349   1.982       .  S
O340        C347   1.255       .  A
O340       Al348   1.857       .  S
O341        C350   1.258       .  A
O341       Al348   1.940       .  S
O342       Al348   1.953       .  S
O343        C350   1.240       .  A
O343       Al599   1.898       .  S
O344       Al599   1.725       .  S
O344       Al603   1.756       .  S
O344       Al348   1.753       .  S
O345        C346   1.299       .  A
C346        C391   1.470       .  S
C347        O601   1.284       .  A
C350        C358   1.468       .  S
C351        O352   1.263       .  A
C351        C373   1.461       .  S
O352       Al603   1.913       .  S
O353        C368   1.286       .  A
O353       Al361   1.950       .  S
C354        O364   1.285       .  A
C354        O355   1.282       .  A
C354        C376   1.483       .  S
O355       Al357   1.915       .  S
O356        C358   1.225       .  A
O356       Al357   1.787       .  S
Al357       O365   1.898       .  S
Al357       O367   1.912       .  S
Al357       O366   1.725       .  S
C358        O371   1.266       .  A
O359        C369   1.283       .  A
O359       Al361   1.969       .  S
O360        C373   1.267   1_655  A
O360      Al1954   1.912       .  S
Al361      O1166   1.913       .  S
Al361       O371   1.982       .  S
Al361       O366   1.756       .  S
O362        C369   1.255       .  A
O362       Al370   1.857       .  S
O363        C372   1.258       .  A
O363       Al370   1.940       .  S
O364       Al370   1.953       .  S
O365        C372   1.240       .  A
O366       Al370   1.753       .  S
O367        C368   1.299       .  A
C369       C1204   1.470       .  S
Al370      O1152   1.912       .  S
C373        O374   1.263       .  A
O374      Al1945   1.913   1_455  S
O375        C390   1.286       .  A
O375       Al383   1.950   1_554  S
C376        O386   1.285       .  A
C376        O377   1.282       .  A
O377       Al379   1.915       .  S
O378        C380   1.225       .  A
O378       Al379   1.787       .  S
Al379       O387   1.899   1_556  S
Al379       O389   1.912   1_556  S
Al379       O388   1.725       .  S
C380        O393   1.266       .  A
C380        C416   1.468       .  S
O381        C391   1.283       .  A
O381       Al383   1.969       .  S
O382        C395   1.267   1_554  A
O382       Al392   1.912   1_554  S
Al383       O396   1.912       .  S
Al383       O393   1.981       .  S
Al383       O388   1.756       .  S
O384        C391   1.255       .  A
O384       Al392   1.857       .  S
O385        C394   1.258       .  A
O385       Al392   1.940   1_554  S
O386       Al392   1.953       .  S
O387        C394   1.241       .  A
O388       Al392   1.753       .  S
O389        C390   1.299       .  A
C390        C435   1.471       .  S
C394        C402   1.469       .  S
C395        O396   1.263       .  A
O397        C412   1.286       .  A
O397       Al405   1.950   1_556  S
C398        O408   1.285       .  A
C398        O399   1.282   1_455  A
C398        C420   1.483       .  S
O399       Al401   1.915       .  S
O400        C402   1.225       .  A
O400      Al1193   1.787       .  S
Al401      O1984   1.787       .  S
Al401       O409   1.898   1_654  S
Al401       O411   1.912   1_554  S
Al401       O410   1.726   1_655  S
C402        O415   1.266       .  A
O403        C413   1.284       .  A
O403       Al405   1.969   1_455  S
O404        C417   1.267   1_556  A
O404       Al414   1.911   1_556  S
Al405       O418   1.913   1_655  S
Al405      O1999   1.982       .  S
Al405       O410   1.756   1_655  S
O406        C413   1.255       .  A
O406       Al414   1.857       .  S
O407        C416   1.258       .  A
O407       Al414   1.940   1_556  S
O408       Al414   1.953       .  S
O409        C416   1.241       .  A
O410       Al414   1.753       .  S
O411        C412   1.299       .  A
C412       C1953   1.470       .  S
C413        C456   1.471       .  S
O415      Al1197   1.982       .  S
C417        O418   1.263       .  A
C417        C659   1.461   1_554  S
O419        C434   1.286       .  A
O419       Al427   1.950       .  S
C420        O430   1.285       .  A
C420        O421   1.282   1_455  A
O421       Al423   1.915       .  S
O422        C424   1.225       .  A
O422      Al1215   1.787       .  S
Al423      O2006   1.787       .  S
Al423       O431   1.899   1_655  S
Al423       O433   1.912       .  S
Al423       O432   1.726   1_655  S
C424        O437   1.266       .  A
C424        C460   1.469       .  S
O425        C435   1.284       .  A
O425       Al427   1.969   1_455  S
O426        C439   1.267       .  A
O426       Al436   1.911       .  S
Al427       O440   1.913   1_655  S
Al427      O2021   1.982       .  S
Al427       O432   1.756   1_655  S
O428        C435   1.255       .  A
O428       Al436   1.857       .  S
O429        C438   1.258       .  A
O429       Al436   1.940       .  S
O430       Al436   1.953       .  S
O431        C438   1.241       .  A
O432       Al436   1.753       .  S
O433        C434   1.299       .  A
C434       C2063   1.470       .  S
O437      Al1219   1.982       .  S
C438        C446   1.468       .  S
C439        O440   1.263       .  A
C439        C461   1.461       .  S
O441        C456   1.286       .  A
O441       Al713   1.950       .  S
C442        O452   1.285       .  A
C442        O443   1.282       .  A
C442        C464   1.483       .  S
O444        C446   1.225       .  A
O444       Al445   1.787       .  S
Al445       O707   1.915       .  S
Al445       O717   1.899       .  S
Al445       O455   1.912       .  S
Al445       O718   1.725       .  S
C446        O459   1.266       .  A
O447        C457   1.283       .  A
O447       Al449   1.969       .  S
O448        C461   1.267       .  A
O448       Al458   1.911       .  S
Al449       O462   1.912       .  S
Al449       O454   1.756       .  S
O450        C457   1.255       .  A
O450       Al458   1.857       .  S
O451        C460   1.258       .  A
O451       Al458   1.940       .  S
O452       Al458   1.953       .  S
O453        C460   1.241       .  A
O454       Al458   1.753       .  S
O455        C456   1.299       .  A
C457        C500   1.470       .  S
O459       Al713   1.981       .  S
C461        O462   1.263       .  A
O463        C478   1.286       .  A
O463       Al735   1.950       .  S
C464        O474   1.285       .  A
C464        O465   1.282       .  A
O466        C468   1.225       .  A
O466       Al467   1.787       .  S
Al467       O729   1.915       .  S
Al467       O739   1.898       .  S
Al467       O477   1.912       .  S
Al467       O740   1.725       .  S
C468        O481   1.266       .  A
C468        C504   1.468       .  S
O469        C479   1.284       .  A
O469       Al471   1.969       .  S
O470        C483   1.267   1_655  A
O470      Al2064   1.912       .  S
Al471      O1276   1.913       .  S
Al471       O476   1.756       .  S
O472        C479   1.255       .  A
O472       Al480   1.857       .  S
O473        C482   1.258       .  A
O473       Al480   1.940       .  S
O474       Al480   1.953       .  S
O475        C482   1.240       .  A
O476       Al480   1.753       .  S
O477        C478   1.299       .  A
C478        C523   1.470       .  S
C479       C1226   1.470       .  S
Al480      O1262   1.912       .  S
O481       Al735   1.982       .  S
C482        C490   1.468       .  S
C483        O484   1.263       .  A
C483        C505   1.461       .  S
O484      Al2055   1.913   1_455  S
O485        C500   1.286       .  A
O485       Al493   1.950       .  S
C486        O496   1.285       .  A
C486        O487   1.282       .  A
C486        C508   1.483       .  S
O487       Al489   1.915       .  S
O488        C490   1.225       .  A
O488       Al489   1.787       .  S
Al489       O497   1.898       .  S
Al489       O499   1.912       .  S
Al489       O498   1.725       .  S
C490        O503   1.266       .  A
O491        C501   1.283       .  A
O491       Al493   1.969       .  S
O492        C505   1.267       .  A
O492       Al502   1.912       .  S
Al493       O506   1.913       .  S
Al493       O503   1.982       .  S
Al493       O498   1.756       .  S
O494        C501   1.255       .  A
O494       Al502   1.857       .  S
O495        C504   1.258       .  A
O495       Al502   1.940       .  S
O496       Al502   1.953       .  S
O497        C504   1.240       .  A
O498       Al502   1.753       .  S
O499        C500   1.299       .  A
C505        O506   1.263       .  A
O507        C522   1.286       .  A
O507       Al515   1.950       .  S
C508        O518   1.285       .  A
C508        O509   1.282       .  A
O509       Al511   1.915       .  S
O510        C512   1.225       .  A
O510       Al511   1.787       .  S
Al511       O519   1.899       .  S
Al511       O521   1.912       .  S
Al511       O520   1.725       .  S
C512        O525   1.266       .  A
O513        C523   1.283       .  A
O513       Al515   1.969       .  S
O514        C527   1.267       .  A
O514       Al524   1.912       .  S
Al515       O528   1.912       .  S
Al515       O525   1.981       .  S
Al515       O520   1.756       .  S
O516        C523   1.255       .  A
O516       Al524   1.857       .  S
O517        C526   1.258       .  A
O517       Al524   1.940       .  S
O518       Al524   1.953       .  S
O519        C526   1.241       .  A
O520       Al524   1.753       .  S
O521        C522   1.299       .  A
C522       C1095   1.471       .  S
C527        O528   1.263       .  A
C527        C549   1.461       .  S
O529        C544   1.286       .  A
O529       Al537   1.950       .  S
C530       O2124   1.285       .  A
C530        O531   1.282       .  A
C530        C552   1.483       .  S
O531       Al533   1.915       .  S
O532        C534   1.225       .  A
O532       Al533   1.787       .  S
Al533       O541   1.898       .  S
Al533       O543   1.911       .  S
Al533       O542   1.726       .  S
C534        O547   1.266       .  A
C534        C790   1.468       .  S
O535        C545   1.284       .  A
O535       Al537   1.969       .  S
O536        C549   1.267       .  A
O536       Al546   1.911       .  S
Al537      O2134   1.913       .  S
Al537       O547   1.982       .  S
Al537       O542   1.756       .  S
O538       C1337   1.255       .  A
O538       Al546   1.857       .  S
O539        C548   1.258       .  A
O539       Al546   1.940       .  S
O540       C1322   1.285       .  A
O540       Al546   1.953       .  S
O541       C2132   1.241       .  A
O542      Al2130   1.753       .  S
O543        C544   1.299       .  A
C544        C765   1.470       .  S
C545       O2122   1.255       .  A
C545       C2172   1.471       .  S
Al546      O1334   1.753       .  S
C548       O1333   1.241       .  A
C548        C776   1.468       .  S
C549        O550   1.263       .  A
O550      Al1329   1.913       .  S
O551        C566   1.286       .  A
O551       Al559   1.950       .  S
C552       O2146   1.285       .  A
C552        O553   1.282       .  A
O553       Al555   1.915       .  S
O554        C556   1.225       .  A
O554       Al555   1.787       .  S
Al555       O563   1.899       .  S
Al555       O565   1.912       .  S
Al555       O564   1.726       .  S
C556        O569   1.266       .  A
C556        C592   1.469       .  S
O557        C567   1.284       .  A
O557       Al559   1.969       .  S
O558        C571   1.267       .  A
O558       Al568   1.911       .  S
Al559      O2156   1.913       .  S
Al559       O569   1.982       .  S
Al559       O564   1.756       .  S
O560       C1359   1.255       .  A
O560       Al568   1.857       .  S
O561        C570   1.258       .  A
O561       Al568   1.940       .  S
O562       C1344   1.285       .  A
O562       Al568   1.953       .  S
O563       C2154   1.241       .  A
O564      Al2152   1.753       .  S
O565        C566   1.299       .  A
C566        C611   1.470       .  S
C567       O2144   1.255       .  A
C567       C2370   1.471       .  S
Al568      O1356   1.753       .  S
C570       O1355   1.241       .  A
C570        C578   1.468       .  S
C571        O572   1.263       .  A
C571        C593   1.461       .  S
O572      Al1351   1.913       .  S
O573        C588   1.286       .  A
O573       Al581   1.950       .  S
C574        O584   1.285   1_545  A
C574        C596   1.483       .  S
O575       Al577   1.915       .  S
O576        C578   1.225       .  A
O576       Al577   1.787       .  S
Al577       O587   1.912       .  S
C578        O591   1.266       .  A
O579       Al581   1.969       .  S
O580        C593   1.267       .  A
O580       Al590   1.911       .  S
Al581       O591   1.981       .  S
O582        C589   1.255       .  A
O582       Al590   1.857       .  S
O583        C592   1.258       .  A
O583       Al590   1.940       .  S
O584       Al590   1.953       .  S
O585        C592   1.241   1_545  A
O586       Al590   1.753   1_545  S
O587        C588   1.299       .  A
C588       C1337   1.471       .  S
C589        C632   1.470       .  S
C593        O594   1.263   1_565  A
O595        C610   1.286       .  A
O595       Al603   1.950       .  S
C596        O606   1.285   1_545  A
O597       Al599   1.915       .  S
O598        C600   1.225       .  A
O598       Al599   1.787       .  S
Al599       O609   1.911       .  S
C600        O613   1.266       .  A
C600        C636   1.468       .  S
O601       Al603   1.969       .  S
O602        C615   1.267       .  A
O602       Al612   1.912       .  S
Al603       O613   1.982       .  S
O604        C611   1.255       .  A
O604       Al612   1.857       .  S
O605        C614   1.258       .  A
O605       Al612   1.940       .  S
O606       Al612   1.953       .  S
O607        C614   1.240   1_545  A
O608       Al612   1.753   1_545  S
O609        C610   1.299       .  A
C610        C655   1.470       .  S
C614        C622   1.468       .  S
C615        O616   1.263   1_565  A
C615        C637   1.461       .  S
O617        C632   1.286       .  A
O617       Al625   1.950       .  S
C618        O628   1.285       .  A
C618        O619   1.282       .  A
C618        C640   1.483       .  S
O619       Al621   1.915       .  S
O620        C622   1.225       .  A
O620       Al621   1.787       .  S
Al621       O629   1.898       .  S
Al621       O631   1.912       .  S
Al621       O630   1.725       .  S
C622        O635   1.266       .  A
O623        C633   1.283       .  A
O623       Al625   1.969       .  S
O624        C637   1.267   1_655  A
O624      Al2218   1.912       .  S
Al625      O1430   1.913       .  S
Al625       O635   1.982       .  S
Al625       O630   1.756       .  S
O626        C633   1.255       .  A
O626       Al634   1.857       .  S
O627        C636   1.258       .  A
O627       Al634   1.940       .  S
O628       Al634   1.953       .  S
O629        C636   1.240       .  A
O630       Al634   1.753       .  S
O631        C632   1.299       .  A
C633       C1468   1.470       .  S
Al634      O1416   1.912       .  S
C637        O638   1.263       .  A
O638      Al2209   1.913   1_455  S
O639        C654   1.286       .  A
O639       Al647   1.950   1_554  S
C640        O650   1.285       .  A
C640        O641   1.282       .  A
O641       Al643   1.915       .  S
O642        C644   1.225       .  A
O642       Al643   1.787       .  S
Al643       O651   1.899   1_556  S
Al643       O653   1.912   1_556  S
Al643       O652   1.725       .  S
C644        O657   1.266       .  A
C644        C680   1.468       .  S
O645        C655   1.283       .  A
O645       Al647   1.969       .  S
O646        C659   1.267   1_554  A
O646       Al656   1.912   1_554  S
Al647       O660   1.912       .  S
Al647       O657   1.981       .  S
Al647       O652   1.756       .  S
O648        C655   1.255       .  A
O648       Al656   1.857       .  S
O649        C658   1.258       .  A
O649       Al656   1.940   1_554  S
O650       Al656   1.953       .  S
O651        C658   1.241       .  A
O652       Al656   1.753       .  S
O653        C654   1.299       .  A
C654        C699   1.471       .  S
C658        C666   1.469       .  S
C659        O660   1.263       .  A
O661        C676   1.286       .  A
O661       Al669   1.950   1_556  S
C662        O672   1.285       .  A
C662        O663   1.282   1_455  A
C662        C684   1.483       .  S
O663       Al665   1.915       .  S
O664        C666   1.225       .  A
O664      Al1457   1.787       .  S
Al665      O2248   1.787       .  S
Al665       O673   1.898   1_654  S
Al665       O675   1.912   1_554  S
Al665       O674   1.726   1_655  S
C666        O679   1.266       .  A
O667        C677   1.284       .  A
O667       Al669   1.969   1_455  S
O668        C681   1.267   1_556  A
O668       Al678   1.911   1_556  S
Al669       O682   1.913   1_655  S
Al669      O2263   1.982       .  S
Al669       O674   1.756   1_655  S
O670        C677   1.255       .  A
O670       Al678   1.857       .  S
O671        C680   1.258       .  A
O671       Al678   1.940   1_556  S
O672       Al678   1.953       .  S
O673        C680   1.241       .  A
O674       Al678   1.753       .  S
O675        C676   1.299       .  A
C676       C2217   1.470       .  S
C677        C720   1.471       .  S
O679      Al1461   1.982       .  S
C681        O682   1.263       .  A
O683        C698   1.286       .  A
O683       Al691   1.950       .  S
C684        O694   1.285       .  A
C684        O685   1.282   1_455  A
O685       Al687   1.915       .  S
O686        C688   1.225       .  A
O686      Al1479   1.787       .  S
Al687      O2270   1.787       .  S
Al687       O695   1.899   1_655  S
Al687       O697   1.912       .  S
Al687       O696   1.726   1_655  S
C688        O701   1.266       .  A
C688        C724   1.469       .  S
O689        C699   1.284       .  A
O689       Al691   1.969   1_455  S
O690        C703   1.267       .  A
O690       Al700   1.911       .  S
Al691       O704   1.913   1_655  S
Al691      O2285   1.982       .  S
Al691       O696   1.756   1_655  S
O692        C699   1.255       .  A
O692       Al700   1.857       .  S
O693        C702   1.258       .  A
O693       Al700   1.940       .  S
O694       Al700   1.953       .  S
O695        C702   1.241       .  A
O696       Al700   1.753       .  S
O697        C698   1.299       .  A
C698       C2327   1.470       .  S
O701      Al1483   1.982       .  S
C702        C710   1.468       .  S
C703        O704   1.263       .  A
C703        C725   1.461       .  S
O705        C720   1.286       .  A
C706        O716   1.285       .  A
C706        O707   1.282       .  A
C706        C728   1.483       .  S
O708        C710   1.225       .  A
O708       Al709   1.787       .  S
Al709       O719   1.912       .  S
C710        O723   1.266       .  A
O711        C721   1.283       .  A
O711       Al713   1.969       .  S
O712        C725   1.267       .  A
O712       Al722   1.911       .  S
Al713       O726   1.912       .  S
Al713       O718   1.756       .  S
O714        C721   1.255       .  A
O714       Al722   1.857       .  S
O715        C724   1.258       .  A
O715       Al722   1.940       .  S
O716       Al722   1.953       .  S
O717        C724   1.241       .  A
O718       Al722   1.753       .  S
O719        C720   1.299       .  A
C721        C764   1.470       .  S
C725        O726   1.263       .  A
O727        C742   1.286       .  A
C728        O738   1.285       .  A
C728        O729   1.282       .  A
O730        C732   1.225       .  A
O730       Al731   1.787       .  S
Al731       O741   1.912       .  S
C732        O745   1.266       .  A
C732        C768   1.468       .  S
O733        C743   1.284       .  A
O733       Al735   1.969       .  S
O734        C747   1.267   1_655  A
O734      Al2328   1.912       .  S
Al735      O1540   1.913       .  S
Al735       O740   1.756       .  S
O736        C743   1.255       .  A
O736       Al744   1.857       .  S
O737        C746   1.258       .  A
O737       Al744   1.940       .  S
O738       Al744   1.953       .  S
O739        C746   1.240       .  A
O740       Al744   1.753       .  S
O741        C742   1.299       .  A
C742        C787   1.470       .  S
C743       C1490   1.470       .  S
Al744      O1526   1.912       .  S
C746        C754   1.468       .  S
C747        O748   1.263       .  A
C747        C769   1.461       .  S
O748      Al2319   1.913   1_455  S
O749        C764   1.286       .  A
O749       Al757   1.950       .  S
C750        O760   1.285       .  A
C750        O751   1.282       .  A
C750        C772   1.483       .  S
O751       Al753   1.915       .  S
O752        C754   1.225       .  A
O752       Al753   1.787       .  S
Al753       O761   1.898       .  S
Al753       O763   1.912       .  S
Al753       O762   1.725       .  S
C754        O767   1.266       .  A
O755        C765   1.283       .  A
O755       Al757   1.969       .  S
O756        C769   1.267       .  A
O756       Al766   1.912       .  S
Al757       O770   1.913       .  S
Al757       O767   1.982       .  S
Al757       O762   1.756       .  S
O758        C765   1.255       .  A
O758       Al766   1.857       .  S
O759        C768   1.258       .  A
O759       Al766   1.940       .  S
O760       Al766   1.953       .  S
O761        C768   1.240       .  A
O762       Al766   1.753       .  S
O763        C764   1.299       .  A
C769        O770   1.263       .  A
O771        C786   1.286       .  A
O771       Al779   1.950       .  S
C772        O782   1.285       .  A
C772        O773   1.282       .  A
O773       Al775   1.915       .  S
O774        C776   1.225       .  A
O774       Al775   1.787       .  S
Al775       O783   1.899       .  S
Al775       O785   1.912       .  S
Al775       O784   1.725       .  S
C776        O789   1.266       .  A
O777        C787   1.283       .  A
O777       Al779   1.969       .  S
O778        C791   1.267       .  A
O778       Al788   1.912       .  S
Al779       O792   1.912       .  S
Al779       O789   1.981       .  S
Al779       O784   1.756       .  S
O780        C787   1.255       .  A
O780       Al788   1.857       .  S
O781        C790   1.258       .  A
O781       Al788   1.940       .  S
O782       Al788   1.953       .  S
O783        C790   1.241       .  A
O784       Al788   1.753       .  S
O785        C786   1.299       .  A
C786       C1359   1.471       .  S
C791        O792   1.263       .  A
O793        C808   1.286       .  A
O793       Al801   1.950       .  S
C794        O795   1.282       .  A
C794        C816   1.483       .  S
O795       Al797   1.915       .  S
O796        C798   1.225       .  A
O796       Al797   1.787       .  S
Al797       O805   1.898       .  S
Al797       O807   1.911       .  S
Al797       O806   1.726       .  S
C798        O811   1.266       .  A
C798       C1054   1.468       .  S
O799        C809   1.284       .  A
O799       Al801   1.969       .  S
O800        C813   1.267       .  A
O800       Al810   1.911       .  S
Al801       O811   1.982       .  S
Al801       O806   1.756       .  S
O802       C1601   1.255       .  A
O802       Al810   1.857       .  S
O803        C812   1.258       .  A
O803       Al810   1.940       .  S
O804       C1586   1.285       .  A
O804       Al810   1.953       .  S
O807        C808   1.299       .  A
C808       C1029   1.470       .  S
Al810      O1598   1.753       .  S
C812       O1597   1.241       .  A
C812       C1040   1.468       .  S
C813        O814   1.263       .  A
C813       C1583   1.461   1_545  S
O814      Al1593   1.913       .  S
O815        C830   1.286       .  A
O815       Al823   1.950       .  S
C816        O817   1.282       .  A
O817       Al819   1.915       .  S
O818        C820   1.225       .  A
O818       Al819   1.787       .  S
Al819       O827   1.899       .  S
Al819       O829   1.912       .  S
Al819       O828   1.726       .  S
C820        O833   1.266       .  A
C820        C856   1.469       .  S
O821        C831   1.284       .  A
O821       Al823   1.969       .  S
O822        C835   1.267       .  A
O822       Al832   1.911       .  S
Al823       O833   1.982       .  S
Al823       O828   1.756       .  S
O824       C1623   1.255       .  A
O824       Al832   1.857       .  S
O825        C834   1.258       .  A
O825       Al832   1.940       .  S
O826       C1608   1.285       .  A
O826       Al832   1.953       .  S
O829        C830   1.299       .  A
C830        C875   1.470       .  S
Al832      O1620   1.753       .  S
C834       O1619   1.241       .  A
C834        C842   1.468       .  S
C835        O836   1.263       .  A
C835        C857   1.461       .  S
O836      Al1615   1.913       .  S
O837        C852   1.286       .  A
O837       Al845   1.950       .  S
C838        O848   1.285       .  A
C838       O1103   1.282       .  A
C838        C860   1.483       .  S
O839       C1366   1.282       .  A
O839       Al841   1.915       .  S
O840        C842   1.225       .  A
O840       Al841   1.787       .  S
Al841      O1377   1.899       .  S
Al841       O851   1.912       .  S
Al841      O1378   1.725       .  S
C842        O855   1.266       .  A
O843       C1381   1.283   1_545  A
O843       Al845   1.969       .  S
O844        C857   1.267       .  A
O844       Al854   1.911       .  S
Al845      O1386   1.912       .  S
Al845       O855   1.981       .  S
Al845      O1378   1.756       .  S
O846        C853   1.255       .  A
O846       Al854   1.857       .  S
O847        C856   1.258       .  A
O847       Al854   1.940       .  S
O848       Al854   1.953       .  S
O849        C856   1.241       .  A
O849      Al1105   1.899       .  S
O850      Al1105   1.725       .  S
O850      Al1109   1.756       .  S
O850       Al854   1.753       .  S
O851        C852   1.299       .  A
C852       C1601   1.471       .  S
C853       O1107   1.283       .  A
C853        C896   1.470       .  S
C857        O858   1.263       .  A
O858      Al1109   1.912       .  S
O859        C874   1.286       .  A
O859       Al867   1.950       .  S
C860        O870   1.285       .  A
C860       O1125   1.282       .  A
O861       C1388   1.282       .  A
O861       Al863   1.915       .  S
O862        C864   1.225       .  A
O862       Al863   1.787       .  S
Al863      O1399   1.898       .  S
Al863       O873   1.911       .  S
Al863      O1400   1.725       .  S
C864        O877   1.266       .  A
C864        C900   1.468       .  S
O865       C1403   1.284   1_545  A
O865       Al867   1.969       .  S
O866        C879   1.267       .  A
O866       Al876   1.912       .  S
Al867      O1408   1.913       .  S
Al867       O877   1.982       .  S
Al867      O1400   1.756       .  S
O868        C875   1.255       .  A
O868       Al876   1.857       .  S
O869        C878   1.258       .  A
O869       Al876   1.940       .  S
O870       Al876   1.953       .  S
O871        C878   1.240       .  A
O871      Al1127   1.898       .  S
O872      Al1127   1.725       .  S
O872      Al1131   1.756       .  S
O872       Al876   1.753       .  S
O873        C874   1.299       .  A
C874        C919   1.470       .  S
C875       O1129   1.284       .  A
C878        C886   1.468       .  S
C879        O880   1.263       .  A
C879        C901   1.461       .  S
O880      Al1131   1.913       .  S
O881        C896   1.286       .  A
O881       Al889   1.950       .  S
C882        O892   1.285       .  A
C882        O883   1.282       .  A
C882        C904   1.483       .  S
O883       Al885   1.915       .  S
O884        C886   1.225       .  A
O884       Al885   1.787       .  S
Al885       O893   1.898       .  S
Al885       O895   1.912       .  S
Al885       O894   1.725       .  S
C886        O899   1.266       .  A
O887        C897   1.283       .  A
O887       Al889   1.969       .  S
O888        C901   1.267       .  A
Al889      O1694   1.913       .  S
Al889       O899   1.982       .  S
Al889       O894   1.756       .  S
O890        C897   1.255       .  A
O890       Al898   1.857       .  S
O891        C900   1.258       .  A
O891       Al898   1.940       .  S
O892       Al898   1.953       .  S
O893        C900   1.240       .  A
O894       Al898   1.753       .  S
O895        C896   1.299       .  A
C897       C1732   1.470       .  S
Al898      O1680   1.912       .  S
C901        O902   1.263       .  A
O903        C918   1.286       .  A
O903       Al911   1.950   1_554  S
C904        O914   1.285       .  A
C904        O905   1.282       .  A
O905       Al907   1.915       .  S
O906        C908   1.225       .  A
O906       Al907   1.787       .  S
Al907       O915   1.899   1_556  S
Al907       O917   1.912   1_556  S
Al907       O916   1.725       .  S
C908        O921   1.266       .  A
C908        C944   1.468       .  S
O909        C919   1.283       .  A
O909       Al911   1.969       .  S
O910        C923   1.267   1_554  A
O910       Al920   1.912   1_554  S
Al911       O924   1.912       .  S
Al911       O921   1.981       .  S
Al911       O916   1.756       .  S
O912        C919   1.255       .  A
O912       Al920   1.857       .  S
O913        C922   1.258       .  A
O913       Al920   1.940   1_554  S
O914       Al920   1.953       .  S
O915        C922   1.241       .  A
O916       Al920   1.753       .  S
O917        C918   1.299       .  A
C918        C963   1.471       .  S
C922        C930   1.469       .  S
C923        O924   1.263       .  A
C923       C1473   1.461   1_546  S
O925        C940   1.286       .  A
O925       Al933   1.950   1_556  S
C926        O936   1.285       .  A
C926        O927   1.282       .  A
C926        C948   1.483       .  S
O927       Al929   1.915       .  S
O928        C930   1.225       .  A
O928      Al1721   1.787       .  S
Al929       O937   1.898   1_554  S
Al929       O939   1.912   1_554  S
Al929       O938   1.726       .  S
C930        O943   1.266       .  A
O931        C941   1.284       .  A
O931       Al933   1.969       .  S
O932        C945   1.267   1_556  A
O932       Al942   1.911   1_556  S
Al933       O946   1.913       .  S
Al933       O938   1.756       .  S
O934        C941   1.255       .  A
O934       Al942   1.857       .  S
O935        C944   1.258       .  A
O935       Al942   1.940   1_556  S
O936       Al942   1.953       .  S
O937        C944   1.241       .  A
O938       Al942   1.753       .  S
O939        C940   1.299       .  A
C941        C984   1.471       .  S
O943      Al1725   1.982       .  S
C945        O946   1.263       .  A
C945       C1187   1.461   1_554  S
O947        C962   1.286       .  A
O947       Al955   1.950       .  S
C948        O958   1.285       .  A
C948        O949   1.282       .  A
O949       Al951   1.915       .  S
O950        C952   1.225       .  A
O950      Al1743   1.787       .  S
Al951       O959   1.899       .  S
Al951       O961   1.912       .  S
Al951       O960   1.726       .  S
C952        O965   1.266       .  A
C952        C988   1.469       .  S
O953        C963   1.284       .  A
O953       Al955   1.969       .  S
O954        C967   1.267       .  A
O954       Al964   1.911       .  S
Al955       O968   1.913       .  S
Al955       O960   1.756       .  S
O956        C963   1.255       .  A
O956       Al964   1.857       .  S
O957        C966   1.258       .  A
O957       Al964   1.940       .  S
O958       Al964   1.953       .  S
O959        C966   1.241       .  A
O960       Al964   1.753       .  S
O961        C962   1.299       .  A
O965      Al1747   1.982       .  S
C966        C974   1.468       .  S
C967        O968   1.263       .  A
C967        C989   1.461       .  S
O969        C984   1.286       .  A
O969      Al1241   1.950       .  S
C970        O980   1.285   1_565  A
C970        O971   1.282       .  A
C970        C992   1.483       .  S
O971      Al1501   1.915       .  S
O972        C974   1.225       .  A
O972       Al973   1.787       .  S
Al973      O1235   1.915       .  S
Al973      O1245   1.899       .  S
Al973       O983   1.912       .  S
Al973      O1246   1.725       .  S
C974        O987   1.266       .  A
O975        C985   1.283   1_565  A
O975       Al977   1.969       .  S
O976        C989   1.267       .  A
O976       Al986   1.911       .  S
Al977      O1497   1.950       .  S
Al977       O990   1.912   1_565  S
Al977      O1515   1.981       .  S
Al977       O982   1.756       .  S
O978        C985   1.255       .  A
O978       Al986   1.857       .  S
O979        C988   1.258       .  A
O979       Al986   1.940       .  S
O980       Al986   1.953       .  S
O981        C988   1.241   1_565  A
O981      Al1501   1.899       .  S
O982      Al1501   1.725       .  S
O982       Al986   1.753   1_565  S
O983        C984   1.299       .  A
C985       C1028   1.470       .  S
O987      Al1241   1.981       .  S
C989        O990   1.263       .  A
O991       C1006   1.286       .  A
O991      Al1263   1.950       .  S
C992       O1002   1.285   1_565  A
C992        O993   1.282       .  A
O993      Al1523   1.915       .  S
O994        C996   1.225       .  A
O994       Al995   1.787       .  S
Al995      O1257   1.915       .  S
Al995      O1267   1.898       .  S
Al995      O1005   1.912       .  S
Al995      O1268   1.725       .  S
C996       O1009   1.266       .  A
C996       C1032   1.468       .  S
O997       C1007   1.284   1_565  A
O997       Al999   1.969       .  S
O998       C1011   1.267       .  A
Al999      O1519   1.950       .  S
Al999      O1804   1.913   1_565  S
Al999      O1537   1.982       .  S
Al999      O1004   1.756       .  S
O1000      C1007   1.255       .  A
O1000     Al1008   1.857       .  S
O1001      C1010   1.258       .  A
O1001     Al1008   1.940       .  S
O1002     Al1008   1.953       .  S
O1003      C1010   1.240   1_565  A
O1003     Al1523   1.898       .  S
O1004     Al1523   1.725       .  S
O1004     Al1008   1.753   1_565  S
O1005      C1006   1.299       .  A
C1006      C1051   1.470       .  S
C1007      C1754   1.470       .  S
Al1008     O1790   1.912       .  S
O1009     Al1263   1.982       .  S
C1010      C1018   1.468       .  S
C1011      O1012   1.263       .  A
C1011      C1033   1.461       .  S
O1013      C1028   1.286       .  A
O1013     Al1021   1.950       .  S
C1014      O1024   1.285       .  A
C1014      O1015   1.282       .  A
C1014      C1036   1.483       .  S
O1015     Al1017   1.915       .  S
O1016      C1018   1.225       .  A
O1016     Al1017   1.787       .  S
Al1017     O1025   1.898       .  S
Al1017     O1027   1.912       .  S
Al1017     O1026   1.725       .  S
C1018      O1031   1.266       .  A
O1019      C1029   1.283       .  A
O1019     Al1021   1.969       .  S
O1020      C1033   1.267       .  A
O1020     Al1030   1.912       .  S
Al1021     O1034   1.913       .  S
Al1021     O1031   1.982       .  S
Al1021     O1026   1.756       .  S
O1022      C1029   1.255       .  A
O1022     Al1030   1.857       .  S
O1023      C1032   1.258       .  A
O1023     Al1030   1.940       .  S
O1024     Al1030   1.953       .  S
O1025      C1032   1.240       .  A
O1026     Al1030   1.753       .  S
O1027      C1028   1.299       .  A
C1033      O1034   1.263       .  A
O1035      C1050   1.286       .  A
O1035     Al1043   1.950       .  S
C1036      O1046   1.285       .  A
C1036      O1037   1.282       .  A
O1037     Al1039   1.915       .  S
O1038      C1040   1.225       .  A
O1038     Al1039   1.787       .  S
Al1039     O1047   1.899       .  S
Al1039     O1049   1.912       .  S
Al1039     O1048   1.725       .  S
C1040      O1053   1.266       .  A
O1041      C1051   1.283       .  A
O1041     Al1043   1.969       .  S
O1042      C1055   1.267       .  A
O1042     Al1052   1.912       .  S
Al1043     O1056   1.912       .  S
Al1043     O1053   1.981       .  S
Al1043     O1048   1.756       .  S
O1044      C1051   1.255       .  A
O1044     Al1052   1.857       .  S
O1045      C1054   1.258       .  A
O1045     Al1052   1.940       .  S
O1046     Al1052   1.953       .  S
O1047      C1054   1.241       .  A
O1048     Al1052   1.753       .  S
O1049      C1050   1.299       .  A
C1050      C1623   1.471       .  S
C1055      O1056   1.263       .  A
C1055      C1077   1.461       .  S
O1057      C1072   1.286       .  A
O1057     Al1065   1.950       .  S
C1058      O1059   1.282       .  A
C1058      C1080   1.483       .  S
O1059     Al1061   1.915       .  S
O1060      C1062   1.225       .  A
O1060     Al1061   1.787       .  S
Al1061     O1069   1.898       .  S
Al1061     O1071   1.911       .  S
Al1061     O1070   1.726       .  S
C1062      O1075   1.266       .  A
C1062      C1318   1.468       .  S
O1063      C1073   1.284       .  A
O1063     Al1065   1.969       .  S
O1064      C1077   1.267       .  A
O1064     Al1074   1.911       .  S
Al1065     O1075   1.982       .  S
Al1065     O1070   1.756       .  S
O1066      C1865   1.255       .  A
O1066     Al1074   1.857       .  S
O1067      C1076   1.258       .  A
O1067     Al1074   1.940       .  S
O1068      C1850   1.285       .  A
O1068     Al1074   1.953       .  S
O1071      C1072   1.299       .  A
C1072      C1293   1.470       .  S
Al1074     O1862   1.753       .  S
C1076      O1861   1.241       .  A
C1076      C1304   1.468       .  S
C1077      O1078   1.263       .  A
O1078     Al1857   1.913       .  S
O1079      C1094   1.286       .  A
O1079     Al1087   1.950       .  S
C1080      O1081   1.282       .  A
O1081     Al1083   1.915       .  S
O1082      C1084   1.225       .  A
O1082     Al1083   1.787       .  S
Al1083     O1091   1.899       .  S
Al1083     O1093   1.912       .  S
Al1083     O1092   1.726       .  S
C1084      O1097   1.266       .  A
C1084      C1120   1.469       .  S
O1085      C1095   1.284       .  A
O1085     Al1087   1.969       .  S
O1086      C1099   1.267       .  A
O1086     Al1096   1.911       .  S
Al1087     O1097   1.982       .  S
Al1087     O1092   1.756       .  S
O1088      C1887   1.255       .  A
O1088     Al1096   1.857       .  S
O1089      C1098   1.258       .  A
O1089     Al1096   1.940       .  S
O1090      C1872   1.285       .  A
O1090     Al1096   1.953       .  S
O1093      C1094   1.299       .  A
C1094      C1139   1.470       .  S
Al1096     O1884   1.753       .  S
C1098      O1883   1.241       .  A
C1098      C1106   1.468       .  S
C1099      O1100   1.263       .  A
C1099      C1121   1.461       .  S
O1100     Al1879   1.913       .  S
O1101      C1116   1.286       .  A
O1101     Al1109   1.950       .  S
C1102      O1112   1.285       .  A
C1102      O1367   1.282       .  A
C1102      C1124   1.483       .  S
O1103     Al1105   1.915       .  S
O1104      C1106   1.225       .  A
O1104     Al1105   1.787       .  S
Al1105     O1115   1.912       .  S
C1106      O1119   1.266       .  A
O1107     Al1109   1.969       .  S
O1108      C1121   1.267       .  A
O1108     Al1118   1.911       .  S
Al1109     O1119   1.981       .  S
O1110      C1117   1.255       .  A
O1110     Al1118   1.857       .  S
O1111      C1120   1.258       .  A
O1111     Al1118   1.940       .  S
O1112     Al1118   1.953       .  S
O1113      C1120   1.241       .  A
O1113     Al1369   1.899       .  S
O1114     Al1369   1.725       .  S
O1114     Al1373   1.756       .  S
O1114     Al1118   1.753       .  S
O1115      C1116   1.299       .  A
C1116      C1865   1.471       .  S
C1117      O1371   1.283       .  A
C1117      C1160   1.470       .  S
C1121      O1122   1.263       .  A
O1122     Al1373   1.912       .  S
O1123      C1138   1.286       .  A
O1123     Al1131   1.950       .  S
C1124      O1134   1.285       .  A
C1124      O1389   1.282       .  A
O1125     Al1127   1.915       .  S
O1126      C1128   1.225       .  A
O1126     Al1127   1.787       .  S
Al1127     O1137   1.911       .  S
C1128      O1141   1.266       .  A
C1128      C1164   1.468       .  S
O1129     Al1131   1.969       .  S
O1130      C1143   1.267       .  A
O1130     Al1140   1.912       .  S
Al1131     O1141   1.982       .  S
O1132      C1139   1.255       .  A
O1132     Al1140   1.857       .  S
O1133      C1142   1.258       .  A
O1133     Al1140   1.940       .  S
O1134     Al1140   1.953       .  S
O1135      C1142   1.240       .  A
O1135     Al1391   1.898       .  S
O1136     Al1391   1.725       .  S
O1136     Al1395   1.756       .  S
O1136     Al1140   1.753       .  S
O1137      C1138   1.299       .  A
C1138      C1183   1.470       .  S
C1139      O1393   1.284       .  A
C1142      C1150   1.468       .  S
C1143      O1144   1.263       .  A
C1143      C1165   1.461       .  S
O1144     Al1395   1.913       .  S
O1145      C1160   1.286       .  A
O1145     Al1153   1.950       .  S
C1146      O1156   1.285       .  A
C1146      O1147   1.282       .  A
C1146      C1168   1.483       .  S
O1147     Al1149   1.915       .  S
O1148      C1150   1.225       .  A
O1148     Al1149   1.787       .  S
Al1149     O1157   1.898       .  S
Al1149     O1159   1.912       .  S
Al1149     O1158   1.725       .  S
C1150      O1163   1.266       .  A
O1151      C1161   1.283       .  A
O1151     Al1153   1.969       .  S
O1152      C1165   1.267       .  A
Al1153     O1958   1.913       .  S
Al1153     O1163   1.982       .  S
Al1153     O1158   1.756       .  S
O1154      C1161   1.255       .  A
O1154     Al1162   1.857       .  S
O1155      C1164   1.258       .  A
O1155     Al1162   1.940       .  S
O1156     Al1162   1.953       .  S
O1157      C1164   1.240       .  A
O1158     Al1162   1.753       .  S
O1159      C1160   1.299       .  A
C1161      C1996   1.470       .  S
Al1162     O1944   1.912       .  S
C1165      O1166   1.263       .  A
O1167      C1182   1.286       .  A
O1167     Al1175   1.950   1_554  S
C1168      O1178   1.285       .  A
C1168      O1169   1.282       .  A
O1169     Al1171   1.915       .  S
O1170      C1172   1.225       .  A
O1170     Al1171   1.787       .  S
Al1171     O1179   1.899   1_556  S
Al1171     O1181   1.912   1_556  S
Al1171     O1180   1.725       .  S
C1172      O1185   1.266       .  A
C1172      C1208   1.468       .  S
O1173      C1183   1.283       .  A
O1173     Al1175   1.969       .  S
O1174      C1187   1.267   1_554  A
O1174     Al1184   1.912   1_554  S
Al1175     O1188   1.912       .  S
Al1175     O1185   1.981       .  S
Al1175     O1180   1.756       .  S
O1176      C1183   1.255       .  A
O1176     Al1184   1.857       .  S
O1177      C1186   1.258       .  A
O1177     Al1184   1.940   1_554  S
O1178     Al1184   1.953       .  S
O1179      C1186   1.241       .  A
O1180     Al1184   1.753       .  S
O1181      C1182   1.299       .  A
C1182      C1227   1.471       .  S
C1186      C1194   1.469       .  S
C1187      O1188   1.263       .  A
O1189      C1204   1.286       .  A
O1189     Al1197   1.950   1_556  S
C1190      O1200   1.285       .  A
C1190      O1191   1.282       .  A
C1190      C1212   1.483       .  S
O1191     Al1193   1.915       .  S
O1192      C1194   1.225       .  A
O1192     Al1985   1.787       .  S
Al1193     O1201   1.898   1_554  S
Al1193     O1203   1.912   1_554  S
Al1193     O1202   1.726       .  S
C1194      O1207   1.266       .  A
O1195      C1205   1.284       .  A
O1195     Al1197   1.969       .  S
O1196      C1209   1.267   1_556  A
O1196     Al1206   1.911   1_556  S
Al1197     O1210   1.913       .  S
Al1197     O1202   1.756       .  S
O1198      C1205   1.255       .  A
O1198     Al1206   1.857       .  S
O1199      C1208   1.258       .  A
O1199     Al1206   1.940   1_556  S
O1200     Al1206   1.953       .  S
O1201      C1208   1.241       .  A
O1202     Al1206   1.753       .  S
O1203      C1204   1.299       .  A
C1205      C1248   1.471       .  S
O1207     Al1989   1.982       .  S
C1209      O1210   1.263       .  A
C1209      C1451   1.461   1_554  S
O1211      C1226   1.286       .  A
O1211     Al1219   1.950       .  S
C1212      O1222   1.285       .  A
C1212      O1213   1.282       .  A
O1213     Al1215   1.915       .  S
O1214      C1216   1.225       .  A
O1214     Al2007   1.787       .  S
Al1215     O1223   1.899       .  S
Al1215     O1225   1.912       .  S
Al1215     O1224   1.726       .  S
C1216      O1229   1.266       .  A
C1216      C1252   1.469       .  S
O1217      C1227   1.284       .  A
O1217     Al1219   1.969       .  S
O1218      C1231   1.267       .  A
O1218     Al1228   1.911       .  S
Al1219     O1232   1.913       .  S
Al1219     O1224   1.756       .  S
O1220      C1227   1.255       .  A
O1220     Al1228   1.857       .  S
O1221      C1230   1.258       .  A
O1221     Al1228   1.940       .  S
O1222     Al1228   1.953       .  S
O1223      C1230   1.241       .  A
O1224     Al1228   1.753       .  S
O1225      C1226   1.299       .  A
O1229     Al2011   1.982       .  S
C1230      C1238   1.468       .  S
C1231      O1232   1.263       .  A
C1231      C1253   1.461       .  S
O1233      C1248   1.286       .  A
O1233     Al1505   1.950       .  S
C1234      O1244   1.285       .  A
C1234      O1235   1.282       .  A
C1234      C1256   1.483       .  S
O1236      C1238   1.225       .  A
O1236     Al1237   1.787       .  S
Al1237     O1499   1.915       .  S
Al1237     O1509   1.899       .  S
Al1237     O1247   1.912       .  S
Al1237     O1510   1.725       .  S
C1238      O1251   1.266       .  A
O1239      C1249   1.283       .  A
O1239     Al1241   1.969       .  S
O1240      C1253   1.267       .  A
O1240     Al1250   1.911       .  S
Al1241     O1254   1.912       .  S
Al1241     O1246   1.756       .  S
O1242      C1249   1.255       .  A
O1242     Al1250   1.857       .  S
O1243      C1252   1.258       .  A
O1243     Al1250   1.940       .  S
O1244     Al1250   1.953       .  S
O1245      C1252   1.241       .  A
O1246     Al1250   1.753       .  S
O1247      C1248   1.299       .  A
C1249      C1292   1.470       .  S
O1251     Al1505   1.981       .  S
C1253      O1254   1.263       .  A
O1255      C1270   1.286       .  A
O1255     Al1527   1.950       .  S
C1256      O1266   1.285       .  A
C1256      O1257   1.282       .  A
O1258      C1260   1.225       .  A
O1258     Al1259   1.787       .  S
Al1259     O1521   1.915       .  S
Al1259     O1531   1.898       .  S
Al1259     O1269   1.912       .  S
Al1259     O1532   1.725       .  S
C1260      O1273   1.266       .  A
C1260      C1296   1.468       .  S
O1261      C1271   1.284       .  A
O1261     Al1263   1.969       .  S
O1262      C1275   1.267       .  A
Al1263     O2068   1.913       .  S
Al1263     O1268   1.756       .  S
O1264      C1271   1.255       .  A
O1264     Al1272   1.857       .  S
O1265      C1274   1.258       .  A
O1265     Al1272   1.940       .  S
O1266     Al1272   1.953       .  S
O1267      C1274   1.240       .  A
O1268     Al1272   1.753       .  S
O1269      C1270   1.299       .  A
C1270      C1315   1.470       .  S
C1271      C2018   1.470       .  S
Al1272     O2054   1.912       .  S
O1273     Al1527   1.982       .  S
C1274      C1282   1.468       .  S
C1275      O1276   1.263       .  A
C1275      C1297   1.461       .  S
O1277      C1292   1.286       .  A
O1277     Al1285   1.950       .  S
C1278      O1288   1.285       .  A
C1278      O1279   1.282       .  A
C1278      C1300   1.483       .  S
O1279     Al1281   1.915       .  S
O1280      C1282   1.225       .  A
O1280     Al1281   1.787       .  S
Al1281     O1289   1.898       .  S
Al1281     O1291   1.912       .  S
Al1281     O1290   1.725       .  S
C1282      O1295   1.266       .  A
O1283      C1293   1.283       .  A
O1283     Al1285   1.969       .  S
O1284      C1297   1.267       .  A
O1284     Al1294   1.912       .  S
Al1285     O1298   1.913       .  S
Al1285     O1295   1.982       .  S
Al1285     O1290   1.756       .  S
O1286      C1293   1.255       .  A
O1286     Al1294   1.857       .  S
O1287      C1296   1.258       .  A
O1287     Al1294   1.940       .  S
O1288     Al1294   1.953       .  S
O1289      C1296   1.240       .  A
O1290     Al1294   1.753       .  S
O1291      C1292   1.299       .  A
C1297      O1298   1.263       .  A
O1299      C1314   1.286       .  A
O1299     Al1307   1.950       .  S
C1300      O1310   1.285       .  A
C1300      O1301   1.282       .  A
O1301     Al1303   1.915       .  S
O1302      C1304   1.225       .  A
O1302     Al1303   1.787       .  S
Al1303     O1311   1.899       .  S
Al1303     O1313   1.912       .  S
Al1303     O1312   1.725       .  S
C1304      O1317   1.266       .  A
O1305      C1315   1.283       .  A
O1305     Al1307   1.969       .  S
O1306      C1319   1.267       .  A
O1306     Al1316   1.912       .  S
Al1307     O1320   1.912       .  S
Al1307     O1317   1.981       .  S
Al1307     O1312   1.756       .  S
O1308      C1315   1.255       .  A
O1308     Al1316   1.857       .  S
O1309      C1318   1.258       .  A
O1309     Al1316   1.940       .  S
O1310     Al1316   1.953       .  S
O1311      C1318   1.241       .  A
O1312     Al1316   1.753       .  S
O1313      C1314   1.299       .  A
C1314      C1887   1.471       .  S
C1319      O1320   1.263       .  A
C1319      C1341   1.461       .  S
O1321      C1336   1.286       .  A
O1321     Al1329   1.950       .  S
C1322      O1323   1.282       .  A
C1322      C1344   1.483       .  S
O1323     Al1325   1.915       .  S
O1324      C1326   1.225       .  A
O1324     Al1325   1.787       .  S
Al1325     O1333   1.898       .  S
Al1325     O1335   1.911       .  S
Al1325     O1334   1.726       .  S
C1326      O1339   1.266       .  A
C1326      C1582   1.468       .  S
O1327      C1337   1.284       .  A
O1327     Al1329   1.969       .  S
O1328      C1341   1.267       .  A
O1328     Al1338   1.911       .  S
Al1329     O1339   1.982       .  S
Al1329     O1334   1.756       .  S
O1330      C2129   1.255       .  A
O1330     Al1338   1.857       .  S
O1331      C1340   1.258       .  A
O1331     Al1338   1.940       .  S
O1332      C2114   1.285       .  A
O1332     Al1338   1.953       .  S
O1335      C1336   1.299       .  A
C1336      C1557   1.470       .  S
Al1338     O2126   1.753       .  S
C1340      O2125   1.241       .  A
C1340      C1568   1.468       .  S
C1341      O1342   1.263       .  A
O1342     Al2121   1.913       .  S
O1343      C1358   1.286       .  A
O1343     Al1351   1.950       .  S
C1344      O1345   1.282       .  A
O1345     Al1347   1.915       .  S
O1346      C1348   1.225       .  A
O1346     Al1347   1.787       .  S
Al1347     O1355   1.899       .  S
Al1347     O1357   1.912       .  S
Al1347     O1356   1.726       .  S
C1348      O1361   1.266       .  A
C1348      C1384   1.469       .  S
O1349      C1359   1.284       .  A
O1349     Al1351   1.969       .  S
O1350      C1363   1.267       .  A
O1350     Al1360   1.911       .  S
Al1351     O1361   1.982       .  S
Al1351     O1356   1.756       .  S
O1352      C2151   1.255       .  A
O1352     Al1360   1.857       .  S
O1353      C1362   1.258       .  A
O1353     Al1360   1.940       .  S
O1354      C2136   1.285       .  A
O1354     Al1360   1.953       .  S
O1357      C1358   1.299       .  A
C1358      C1403   1.470       .  S
Al1360     O2148   1.753       .  S
C1362      O2147   1.241       .  A
C1362      C1370   1.468       .  S
C1363      O1364   1.263       .  A
C1363      C1385   1.461       .  S
O1364     Al2143   1.913       .  S
O1365      C1380   1.286       .  A
O1365     Al1373   1.950       .  S
C1366      O1376   1.285   1_545  A
C1366      C1388   1.483       .  S
O1367     Al1369   1.915       .  S
O1368      C1370   1.225       .  A
O1368     Al1369   1.787       .  S
Al1369     O1379   1.912       .  S
C1370      O1383   1.266       .  A
O1371     Al1373   1.969       .  S
O1372      C1385   1.267       .  A
O1372     Al1382   1.911       .  S
Al1373     O1383   1.981       .  S
O1374      C1381   1.255       .  A
O1374     Al1382   1.857       .  S
O1375      C1384   1.258       .  A
O1375     Al1382   1.940       .  S
O1376     Al1382   1.953       .  S
O1377      C1384   1.241   1_545  A
O1378     Al1382   1.753   1_545  S
O1379      C1380   1.299       .  A
C1380      C2129   1.471       .  S
C1381      C1424   1.470       .  S
C1385      O1386   1.263   1_565  A
O1387      C1402   1.286       .  A
O1387     Al1395   1.950       .  S
C1388      O1398   1.285   1_545  A
O1389     Al1391   1.915       .  S
O1390      C1392   1.225       .  A
O1390     Al1391   1.787       .  S
Al1391     O1401   1.911       .  S
C1392      O1405   1.266       .  A
C1392      C1428   1.468       .  S
O1393     Al1395   1.969       .  S
O1394      C1407   1.267       .  A
O1394     Al1404   1.912       .  S
Al1395     O1405   1.982       .  S
O1396      C1403   1.255       .  A
O1396     Al1404   1.857       .  S
O1397      C1406   1.258       .  A
O1397     Al1404   1.940       .  S
O1398     Al1404   1.953       .  S
O1399      C1406   1.240   1_545  A
O1400     Al1404   1.753   1_545  S
O1401      C1402   1.299       .  A
C1402      C1447   1.470       .  S
C1406      C1414   1.468       .  S
C1407      O1408   1.263   1_565  A
C1407      C1429   1.461       .  S
O1409      C1424   1.286       .  A
O1409     Al1417   1.950       .  S
C1410      O1420   1.285       .  A
C1410      O1411   1.282       .  A
C1410      C1432   1.483       .  S
O1411     Al1413   1.915       .  S
O1412      C1414   1.225       .  A
O1412     Al1413   1.787       .  S
Al1413     O1421   1.898       .  S
Al1413     O1423   1.912       .  S
Al1413     O1422   1.725       .  S
C1414      O1427   1.266       .  A
O1415      C1425   1.283       .  A
O1415     Al1417   1.969       .  S
O1416      C1429   1.267       .  A
Al1417     O2222   1.913       .  S
Al1417     O1427   1.982       .  S
Al1417     O1422   1.756       .  S
O1418      C1425   1.255       .  A
O1418     Al1426   1.857       .  S
O1419      C1428   1.258       .  A
O1419     Al1426   1.940       .  S
O1420     Al1426   1.953       .  S
O1421      C1428   1.240       .  A
O1422     Al1426   1.753       .  S
O1423      C1424   1.299       .  A
C1425      C2260   1.470       .  S
Al1426     O2208   1.912       .  S
C1429      O1430   1.263       .  A
O1431      C1446   1.286       .  A
O1431     Al1439   1.950   1_554  S
C1432      O1442   1.285       .  A
C1432      O1433   1.282       .  A
O1433     Al1435   1.915       .  S
O1434      C1436   1.225       .  A
O1434     Al1435   1.787       .  S
Al1435     O1443   1.899   1_556  S
Al1435     O1445   1.912   1_556  S
Al1435     O1444   1.725       .  S
C1436      O1449   1.266       .  A
C1436      C1472   1.468       .  S
O1437      C1447   1.283       .  A
O1437     Al1439   1.969       .  S
O1438      C1451   1.267   1_554  A
O1438     Al1448   1.912   1_554  S
Al1439     O1452   1.912       .  S
Al1439     O1449   1.981       .  S
Al1439     O1444   1.756       .  S
O1440      C1447   1.255       .  A
O1440     Al1448   1.857       .  S
O1441      C1450   1.258       .  A
O1441     Al1448   1.940   1_554  S
O1442     Al1448   1.953       .  S
O1443      C1450   1.241       .  A
O1444     Al1448   1.753       .  S
O1445      C1446   1.299       .  A
C1446      C1491   1.471       .  S
C1450      C1458   1.469       .  S
C1451      O1452   1.263       .  A
O1453      C1468   1.286       .  A
O1453     Al1461   1.950   1_556  S
C1454      O1464   1.285       .  A
C1454      O1455   1.282       .  A
C1454      C1476   1.483       .  S
O1455     Al1457   1.915       .  S
O1456      C1458   1.225       .  A
O1456     Al2249   1.787       .  S
Al1457     O1465   1.898   1_554  S
Al1457     O1467   1.912   1_554  S
Al1457     O1466   1.726       .  S
C1458      O1471   1.266       .  A
O1459      C1469   1.284       .  A
O1459     Al1461   1.969       .  S
O1460      C1473   1.267   1_556  A
O1460     Al1470   1.911   1_556  S
Al1461     O1474   1.913       .  S
Al1461     O1466   1.756       .  S
O1462      C1469   1.255       .  A
O1462     Al1470   1.857       .  S
O1463      C1472   1.258       .  A
O1463     Al1470   1.940   1_556  S
O1464     Al1470   1.953       .  S
O1465      C1472   1.241       .  A
O1466     Al1470   1.753       .  S
O1467      C1468   1.299       .  A
C1469      C1512   1.471       .  S
O1471     Al2253   1.982       .  S
C1473      O1474   1.263       .  A
O1475      C1490   1.286       .  A
O1475     Al1483   1.950       .  S
C1476      O1486   1.285       .  A
C1476      O1477   1.282       .  A
O1477     Al1479   1.915       .  S
O1478      C1480   1.225       .  A
O1478     Al2271   1.787       .  S
Al1479     O1487   1.899       .  S
Al1479     O1489   1.912       .  S
Al1479     O1488   1.726       .  S
C1480      O1493   1.266       .  A
C1480      C1516   1.469       .  S
O1481      C1491   1.284       .  A
O1481     Al1483   1.969       .  S
O1482      C1495   1.267       .  A
O1482     Al1492   1.911       .  S
Al1483     O1496   1.913       .  S
Al1483     O1488   1.756       .  S
O1484      C1491   1.255       .  A
O1484     Al1492   1.857       .  S
O1485      C1494   1.258       .  A
O1485     Al1492   1.940       .  S
O1486     Al1492   1.953       .  S
O1487      C1494   1.241       .  A
O1488     Al1492   1.753       .  S
O1489      C1490   1.299       .  A
O1493     Al2275   1.982       .  S
C1494      C1502   1.468       .  S
C1495      O1496   1.263       .  A
C1495      C1517   1.461       .  S
O1497      C1512   1.286       .  A
C1498      O1508   1.285       .  A
C1498      O1499   1.282       .  A
C1498      C1520   1.483       .  S
O1500      C1502   1.225       .  A
O1500     Al1501   1.787       .  S
Al1501     O1511   1.912       .  S
C1502      O1515   1.266       .  A
O1503      C1513   1.283       .  A
O1503     Al1505   1.969       .  S
O1504      C1517   1.267       .  A
O1504     Al1514   1.911       .  S
Al1505     O1518   1.912       .  S
Al1505     O1510   1.756       .  S
O1506      C1513   1.255       .  A
O1506     Al1514   1.857       .  S
O1507      C1516   1.258       .  A
O1507     Al1514   1.940       .  S
O1508     Al1514   1.953       .  S
O1509      C1516   1.241       .  A
O1510     Al1514   1.753       .  S
O1511      C1512   1.299       .  A
C1513      C1556   1.470       .  S
C1517      O1518   1.263       .  A
O1519      C1534   1.286       .  A
C1520      O1530   1.285       .  A
C1520      O1521   1.282       .  A
O1522      C1524   1.225       .  A
O1522     Al1523   1.787       .  S
Al1523     O1533   1.912       .  S
C1524      O1537   1.266       .  A
C1524      C1560   1.468       .  S
O1525      C1535   1.284       .  A
O1525     Al1527   1.969       .  S
O1526      C1539   1.267       .  A
Al1527     O2332   1.913       .  S
Al1527     O1532   1.756       .  S
O1528      C1535   1.255       .  A
O1528     Al1536   1.857       .  S
O1529      C1538   1.258       .  A
O1529     Al1536   1.940       .  S
O1530     Al1536   1.953       .  S
O1531      C1538   1.240       .  A
O1532     Al1536   1.753       .  S
O1533      C1534   1.299       .  A
C1534      C1579   1.470       .  S
C1535      C2282   1.470       .  S
Al1536     O2318   1.912       .  S
C1538      C1546   1.468       .  S
C1539      O1540   1.263       .  A
C1539      C1561   1.461       .  S
O1541      C1556   1.286       .  A
O1541     Al1549   1.950       .  S
C1542      O1552   1.285       .  A
C1542      O1543   1.282       .  A
C1542      C1564   1.483       .  S
O1543     Al1545   1.915       .  S
O1544      C1546   1.225       .  A
O1544     Al1545   1.787       .  S
Al1545     O1553   1.898       .  S
Al1545     O1555   1.912       .  S
Al1545     O1554   1.725       .  S
C1546      O1559   1.266       .  A
O1547      C1557   1.283       .  A
O1547     Al1549   1.969       .  S
O1548      C1561   1.267       .  A
O1548     Al1558   1.912       .  S
Al1549     O1562   1.913       .  S
Al1549     O1559   1.982       .  S
Al1549     O1554   1.756       .  S
O1550      C1557   1.255       .  A
O1550     Al1558   1.857       .  S
O1551      C1560   1.258       .  A
O1551     Al1558   1.940       .  S
O1552     Al1558   1.953       .  S
O1553      C1560   1.240       .  A
O1554     Al1558   1.753       .  S
O1555      C1556   1.299       .  A
C1561      O1562   1.263       .  A
O1563      C1578   1.286       .  A
O1563     Al1571   1.950       .  S
C1564      O1574   1.285       .  A
C1564      O1565   1.282       .  A
O1565     Al1567   1.915       .  S
O1566      C1568   1.225       .  A
O1566     Al1567   1.787       .  S
Al1567     O1575   1.899       .  S
Al1567     O1577   1.912       .  S
Al1567     O1576   1.725       .  S
C1568      O1581   1.266       .  A
O1569      C1579   1.283       .  A
O1569     Al1571   1.969       .  S
O1570      C1583   1.267       .  A
O1570     Al1580   1.912       .  S
Al1571     O1584   1.912       .  S
Al1571     O1581   1.981       .  S
Al1571     O1576   1.756       .  S
O1572      C1579   1.255       .  A
O1572     Al1580   1.857       .  S
O1573      C1582   1.258       .  A
O1573     Al1580   1.940       .  S
O1574     Al1580   1.953       .  S
O1575      C1582   1.241       .  A
O1576     Al1580   1.753       .  S
O1577      C1578   1.299       .  A
C1578      C2151   1.471       .  S
C1583      O1584   1.263       .  A
O1585      C1600   1.286       .  A
O1585     Al1593   1.950       .  S
C1586      O1587   1.282       .  A
C1586      C1608   1.483       .  S
O1587     Al1589   1.915       .  S
O1588      C1590   1.225       .  A
O1588     Al1589   1.787       .  S
Al1589     O1597   1.898       .  S
Al1589     O1599   1.911       .  S
Al1589     O1598   1.726       .  S
C1590      O1603   1.266       .  A
C1590      C1846   1.468       .  S
O1591      C1601   1.284       .  A
O1591     Al1593   1.969       .  S
O1592      C1605   1.267   1_655  A
O1592     Al1602   1.911   1_655  S
Al1593     O1603   1.982       .  S
Al1593     O1598   1.756       .  S
O1594     Al1602   1.857       .  S
O1595      C1604   1.258       .  A
O1595     Al1602   1.940       .  S
O1596     Al1602   1.953       .  S
O1599      C1600   1.299       .  A
C1600      C1821   1.470       .  S
C1604      C1832   1.468       .  S
C1605      O1606   1.263       .  A
C1605      C2375   1.461   1_445  S
O1607      C1622   1.286       .  A
O1607     Al1615   1.950       .  S
C1608      O1609   1.282       .  A
O1609     Al1611   1.915       .  S
O1610      C1612   1.225       .  A
O1610     Al1611   1.787       .  S
Al1611     O1619   1.899       .  S
Al1611     O1621   1.912       .  S
Al1611     O1620   1.726       .  S
C1612      O1625   1.266       .  A
C1612      C1648   1.469       .  S
O1613      C1623   1.284       .  A
O1613     Al1615   1.969       .  S
O1614      C1627   1.267   1_655  A
O1614     Al1624   1.911   1_655  S
Al1615     O1625   1.982       .  S
Al1615     O1620   1.756       .  S
O1616     Al1624   1.857       .  S
O1617      C1626   1.258       .  A
O1617     Al1624   1.940       .  S
O1618     Al1624   1.953       .  S
O1621      C1622   1.299       .  A
C1622      C1667   1.470       .  S
C1626      C1634   1.468       .  S
C1627      O1628   1.263       .  A
C1627      C1649   1.461   1_455  S
O1629      C1644   1.286       .  A
O1629     Al1637   1.950       .  S
C1630      O1640   1.285       .  A
C1630      O1895   1.282       .  A
C1630      C1652   1.483       .  S
O1631      C2158   1.282       .  A
O1631     Al1633   1.915       .  S
O1632      C1634   1.225   1_655  A
O1632     Al1633   1.787       .  S
Al1633     O2169   1.899       .  S
Al1633     O1643   1.912       .  S
Al1633     O2170   1.725       .  S
C1634      O1647   1.266       .  A
O1635      C2173   1.283   1_545  A
O1635     Al1637   1.969   1_655  S
O1636      C1649   1.267       .  A
O1636     Al1646   1.911       .  S
Al1637     O2178   1.912       .  S
Al1637     O1647   1.981       .  S
Al1637     O2170   1.756   1_455  S
O1638      C1645   1.255       .  A
O1638     Al1646   1.857       .  S
O1639      C1648   1.258       .  A
O1639     Al1646   1.940       .  S
O1640     Al1646   1.953       .  S
O1641      C1648   1.241       .  A
O1641     Al1897   1.899       .  S
O1642     Al1897   1.725       .  S
O1642     Al1901   1.756   1_655  S
O1642     Al1646   1.753       .  S
O1643      C1644   1.299   1_655  A
C1645      O1899   1.283       .  A
C1645      C1688   1.470       .  S
C1649      O1650   1.263   1_655  A
O1650     Al1901   1.912       .  S
O1651      C1666   1.286       .  A
O1651     Al1659   1.950       .  S
C1652      O1662   1.285       .  A
C1652      O1917   1.282       .  A
O1653      C2180   1.282       .  A
O1653     Al1655   1.915       .  S
O1654      C1656   1.225       .  A
O1654     Al1655   1.787       .  S
Al1655     O2191   1.898       .  S
Al1655     O1665   1.911       .  S
Al1655     O2192   1.725       .  S
C1656      O1669   1.266       .  A
C1656      C1692   1.468       .  S
O1657      C2195   1.284   1_545  A
O1657     Al1659   1.969       .  S
O1658      C1671   1.267       .  A
O1658     Al1668   1.912       .  S
Al1659     O2200   1.913       .  S
Al1659     O1669   1.982       .  S
Al1659     O2192   1.756       .  S
O1660      C1667   1.255       .  A
O1660     Al1668   1.857       .  S
O1661      C1670   1.258       .  A
O1661     Al1668   1.940       .  S
O1662     Al1668   1.953       .  S
O1663      C1670   1.240       .  A
O1663     Al1919   1.898       .  S
O1664     Al1919   1.725       .  S
O1664     Al1923   1.756       .  S
O1664     Al1668   1.753       .  S
O1665      C1666   1.299       .  A
C1666      C1711   1.470       .  S
C1667      O1921   1.284       .  A
C1670      C1678   1.468       .  S
C1671      O1672   1.263       .  A
C1671      C1693   1.461       .  S
O1672     Al1923   1.913       .  S
O1673      C1688   1.286       .  A
O1673     Al1681   1.950       .  S
C1674      O1684   1.285       .  A
C1674      O1675   1.282       .  A
C1674      C1696   1.483       .  S
O1675     Al1677   1.915       .  S
O1676      C1678   1.225       .  A
O1676     Al1677   1.787       .  S
Al1677     O1685   1.898       .  S
Al1677     O1687   1.912       .  S
Al1677     O1686   1.725       .  S
C1678      O1691   1.266       .  A
O1679      C1689   1.283       .  A
O1679     Al1681   1.969       .  S
O1680      C1693   1.267       .  A
Al1681     O1691   1.982       .  S
Al1681     O1686   1.756       .  S
O1682      C1689   1.255       .  A
O1682     Al1690   1.857       .  S
O1683      C1692   1.258       .  A
O1683     Al1690   1.940       .  S
O1684     Al1690   1.953       .  S
O1685      C1692   1.240       .  A
O1686     Al1690   1.753       .  S
O1687      C1688   1.299       .  A
C1693      O1694   1.263       .  A
O1695      C1710   1.286       .  A
O1695     Al1703   1.950   1_554  S
C1696      O1706   1.285       .  A
C1696      O1697   1.282       .  A
O1697     Al1699   1.915       .  S
O1698      C1700   1.225       .  A
O1698     Al1699   1.787       .  S
Al1699     O1707   1.899   1_556  S
Al1699     O1709   1.912   1_556  S
Al1699     O1708   1.725       .  S
C1700      O1713   1.266       .  A
C1700      C1736   1.468       .  S
O1701      C1711   1.283       .  A
O1701     Al1703   1.969       .  S
O1702      C1715   1.267   1_554  A
O1702     Al1712   1.912   1_554  S
Al1703     O1716   1.912       .  S
Al1703     O1713   1.981       .  S
Al1703     O1708   1.756       .  S
O1704      C1711   1.255       .  A
O1704     Al1712   1.857       .  S
O1705      C1714   1.258       .  A
O1705     Al1712   1.940   1_554  S
O1706     Al1712   1.953       .  S
O1707      C1714   1.241       .  A
O1708     Al1712   1.753       .  S
O1709      C1710   1.299       .  A
C1710      C1755   1.471       .  S
C1714      C1722   1.469       .  S
C1715      O1716   1.263       .  A
C1715      C2265   1.461   1_546  S
O1717      C1732   1.286       .  A
O1717     Al1725   1.950   1_556  S
C1718      O1728   1.285       .  A
C1718      O1719   1.282       .  A
C1718      C1740   1.483       .  S
O1719     Al1721   1.915       .  S
O1720      C1722   1.225       .  A
Al1721     O1729   1.898   1_554  S
Al1721     O1731   1.912   1_554  S
Al1721     O1730   1.726       .  S
C1722      O1735   1.266       .  A
O1723      C1733   1.284       .  A
O1723     Al1725   1.969       .  S
O1724      C1737   1.267   1_556  A
O1724     Al1734   1.911   1_556  S
Al1725     O1738   1.913       .  S
Al1725     O1730   1.756       .  S
O1726      C1733   1.255       .  A
O1726     Al1734   1.857       .  S
O1727      C1736   1.258       .  A
O1727     Al1734   1.940   1_556  S
O1728     Al1734   1.953       .  S
O1729      C1736   1.241       .  A
O1730     Al1734   1.753       .  S
O1731      C1732   1.299       .  A
C1733      C1776   1.471       .  S
C1737      O1738   1.263       .  A
C1737      C1979   1.461   1_554  S
O1739      C1754   1.286       .  A
O1739     Al1747   1.950       .  S
C1740      O1750   1.285       .  A
C1740      O1741   1.282       .  A
O1741     Al1743   1.915       .  S
O1742      C1744   1.225       .  A
Al1743     O1751   1.899       .  S
Al1743     O1753   1.912       .  S
Al1743     O1752   1.726       .  S
C1744      O1757   1.266       .  A
C1744      C1780   1.469       .  S
O1745      C1755   1.284       .  A
O1745     Al1747   1.969       .  S
O1746      C1759   1.267       .  A
O1746     Al1756   1.911       .  S
Al1747     O1760   1.913       .  S
Al1747     O1752   1.756       .  S
O1748      C1755   1.255       .  A
O1748     Al1756   1.857       .  S
O1749      C1758   1.258       .  A
O1749     Al1756   1.940       .  S
O1750     Al1756   1.953       .  S
O1751      C1758   1.241       .  A
O1752     Al1756   1.753       .  S
O1753      C1754   1.299       .  A
C1758      C1766   1.468       .  S
C1759      O1760   1.263       .  A
C1759      C1781   1.461       .  S
O1761      C1776   1.286       .  A
O1761     Al2033   1.950       .  S
C1762      O1772   1.285   1_565  A
C1762      O1763   1.282       .  A
C1762      C1784   1.483       .  S
O1763     Al2293   1.915       .  S
O1764      C1766   1.225       .  A
O1764     Al1765   1.787       .  S
Al1765     O2027   1.915       .  S
Al1765     O2037   1.899       .  S
Al1765     O1775   1.912       .  S
Al1765     O2038   1.725       .  S
C1766      O1779   1.266       .  A
O1767      C1777   1.283   1_565  A
O1767     Al1769   1.969       .  S
O1768      C1781   1.267       .  A
O1768     Al1778   1.911       .  S
Al1769     O2289   1.950       .  S
Al1769     O1782   1.912   1_565  S
Al1769     O2307   1.981       .  S
Al1769     O1774   1.756       .  S
O1770      C1777   1.255       .  A
O1770     Al1778   1.857       .  S
O1771      C1780   1.258       .  A
O1771     Al1778   1.940       .  S
O1772     Al1778   1.953       .  S
O1773      C1780   1.241   1_565  A
O1773     Al2293   1.899       .  S
O1774     Al2293   1.725       .  S
O1774     Al1778   1.753   1_565  S
O1775      C1776   1.299       .  A
C1777      C1820   1.470       .  S
O1779     Al2033   1.981       .  S
C1781      O1782   1.263       .  A
O1783      C1798   1.286       .  A
O1783     Al2055   1.950       .  S
C1784      O1794   1.285   1_565  A
C1784      O1785   1.282       .  A
O1785     Al2315   1.915       .  S
O1786      C1788   1.225       .  A
O1786     Al1787   1.787       .  S
Al1787     O2049   1.915       .  S
Al1787     O2059   1.898       .  S
Al1787     O1797   1.912       .  S
Al1787     O2060   1.725       .  S
C1788      O1801   1.266       .  A
C1788      C1824   1.468       .  S
O1789      C1799   1.284   1_565  A
O1789     Al1791   1.969       .  S
O1790      C1803   1.267       .  A
Al1791     O2311   1.950       .  S
Al1791     O2329   1.982       .  S
Al1791     O1796   1.756       .  S
O1792      C1799   1.255       .  A
O1792     Al1800   1.857       .  S
O1793      C1802   1.258       .  A
O1793     Al1800   1.940       .  S
O1794     Al1800   1.953       .  S
O1795      C1802   1.240   1_565  A
O1795     Al2315   1.898       .  S
O1796     Al2315   1.725       .  S
O1796     Al1800   1.753   1_565  S
O1797      C1798   1.299       .  A
C1798      C1843   1.470       .  S
O1801     Al2055   1.982       .  S
C1802      C1810   1.468       .  S
C1803      O1804   1.263       .  A
C1803      C1825   1.461       .  S
O1805      C1820   1.286       .  A
O1805     Al1813   1.950       .  S
C1806      O1816   1.285       .  A
C1806      O1807   1.282       .  A
C1806      C1828   1.483       .  S
O1807     Al1809   1.915       .  S
O1808      C1810   1.225       .  A
O1808     Al1809   1.787       .  S
Al1809     O1817   1.898       .  S
Al1809     O1819   1.912       .  S
Al1809     O1818   1.725       .  S
C1810      O1823   1.266       .  A
O1811      C1821   1.283       .  A
O1811     Al1813   1.969       .  S
O1812      C1825   1.267       .  A
O1812     Al1822   1.912       .  S
Al1813     O1826   1.913       .  S
Al1813     O1823   1.982       .  S
Al1813     O1818   1.756       .  S
O1814      C1821   1.255       .  A
O1814     Al1822   1.857       .  S
O1815      C1824   1.258       .  A
O1815     Al1822   1.940       .  S
O1816     Al1822   1.953       .  S
O1817      C1824   1.240       .  A
O1818     Al1822   1.753       .  S
O1819      C1820   1.299       .  A
C1825      O1826   1.263       .  A
O1827      C1842   1.286       .  A
O1827     Al1835   1.950       .  S
C1828      O1838   1.285       .  A
C1828      O1829   1.282       .  A
O1829     Al1831   1.915       .  S
O1830      C1832   1.225   1_655  A
O1830     Al1831   1.787       .  S
Al1831     O1839   1.899       .  S
Al1831     O1841   1.912       .  S
Al1831     O1840   1.725       .  S
C1832      O1845   1.266       .  A
O1833      C1843   1.283       .  A
O1833     Al1835   1.969   1_655  S
O1834      C1847   1.267       .  A
O1834     Al1844   1.912       .  S
Al1835     O1848   1.912       .  S
Al1835     O1845   1.981       .  S
Al1835     O1840   1.756   1_455  S
O1836      C1843   1.255       .  A
O1836     Al1844   1.857       .  S
O1837      C1846   1.258       .  A
O1837     Al1844   1.940       .  S
O1838     Al1844   1.953       .  S
O1839      C1846   1.241       .  A
O1840     Al1844   1.753       .  S
O1841      C1842   1.299   1_655  A
C1847      O1848   1.263   1_655  A
C1847      C1869   1.461   1_655  S
O1849      C1864   1.286       .  A
O1849     Al1857   1.950       .  S
C1850      O1851   1.282       .  A
C1850      C1872   1.483       .  S
O1851     Al1853   1.915       .  S
O1852      C1854   1.225       .  A
O1852     Al1853   1.787       .  S
Al1853     O1861   1.898       .  S
Al1853     O1863   1.911       .  S
Al1853     O1862   1.726       .  S
C1854      O1867   1.266       .  A
C1854      C2110   1.468       .  S
O1855      C1865   1.284       .  A
O1855     Al1857   1.969       .  S
O1856      C1869   1.267   1_655  A
O1856     Al1866   1.911   1_655  S
Al1857     O1867   1.982       .  S
Al1857     O1862   1.756       .  S
O1858     Al1866   1.857       .  S
O1859      C1868   1.258       .  A
O1859     Al1866   1.940       .  S
O1860     Al1866   1.953       .  S
O1863      C1864   1.299       .  A
C1864      C2085   1.470       .  S
C1868      C2096   1.468       .  S
C1869      O1870   1.263       .  A
O1871      C1886   1.286       .  A
O1871     Al1879   1.950       .  S
C1872      O1873   1.282       .  A
O1873     Al1875   1.915       .  S
O1874      C1876   1.225       .  A
O1874     Al1875   1.787       .  S
Al1875     O1883   1.899       .  S
Al1875     O1885   1.912       .  S
Al1875     O1884   1.726       .  S
C1876      O1889   1.266       .  A
C1876      C1912   1.469       .  S
O1877      C1887   1.284       .  A
O1877     Al1879   1.969       .  S
O1878      C1891   1.267   1_655  A
O1878     Al1888   1.911   1_655  S
Al1879     O1889   1.982       .  S
Al1879     O1884   1.756       .  S
O1880     Al1888   1.857       .  S
O1881      C1890   1.258       .  A
O1881     Al1888   1.940       .  S
O1882     Al1888   1.953       .  S
O1885      C1886   1.299       .  A
C1886      C1931   1.470       .  S
C1890      C1898   1.468       .  S
C1891      O1892   1.263       .  A
C1891      C1913   1.461   1_455  S
O1893      C1908   1.286       .  A
O1893     Al1901   1.950       .  S
C1894      O1904   1.285       .  A
C1894      O2159   1.282       .  A
C1894      C1916   1.483       .  S
O1895     Al1897   1.915       .  S
O1896      C1898   1.225   1_655  A
O1896     Al1897   1.787       .  S
Al1897     O1907   1.912       .  S
C1898      O1911   1.266       .  A
O1899     Al1901   1.969   1_655  S
O1900      C1913   1.267       .  A
O1900     Al1910   1.911       .  S
Al1901     O1911   1.981       .  S
O1902      C1909   1.255       .  A
O1902     Al1910   1.857       .  S
O1903      C1912   1.258       .  A
O1903     Al1910   1.940       .  S
O1904     Al1910   1.953       .  S
O1905      C1912   1.241       .  A
O1905     Al2161   1.899       .  S
O1906     Al2161   1.725       .  S
O1906     Al2165   1.756   1_655  S
O1906     Al1910   1.753       .  S
O1907      C1908   1.299   1_655  A
C1909      O2163   1.283       .  A
C1909      C1952   1.470       .  S
C1913      O1914   1.263   1_655  A
O1914     Al2165   1.912       .  S
O1915      C1930   1.286       .  A
O1915     Al1923   1.950       .  S
C1916      O1926   1.285       .  A
C1916      O2181   1.282       .  A
O1917     Al1919   1.915       .  S
O1918      C1920   1.225       .  A
O1918     Al1919   1.787       .  S
Al1919     O1929   1.911       .  S
C1920      O1933   1.266       .  A
C1920      C1956   1.468       .  S
O1921     Al1923   1.969       .  S
O1922      C1935   1.267       .  A
O1922     Al1932   1.912       .  S
Al1923     O1933   1.982       .  S
O1924      C1931   1.255       .  A
O1924     Al1932   1.857       .  S
O1925      C1934   1.258       .  A
O1925     Al1932   1.940       .  S
O1926     Al1932   1.953       .  S
O1927      C1934   1.240       .  A
O1927     Al2183   1.898       .  S
O1928     Al2183   1.725       .  S
O1928     Al2187   1.756       .  S
O1928     Al1932   1.753       .  S
O1929      C1930   1.299       .  A
C1930      C1975   1.470       .  S
C1931      O2185   1.284       .  A
C1934      C1942   1.468       .  S
C1935      O1936   1.263       .  A
C1935      C1957   1.461       .  S
O1936     Al2187   1.913       .  S
O1937      C1952   1.286       .  A
O1937     Al1945   1.950       .  S
C1938      O1948   1.285       .  A
C1938      O1939   1.282       .  A
C1938      C1960   1.483       .  S
O1939     Al1941   1.915       .  S
O1940      C1942   1.225       .  A
O1940     Al1941   1.787       .  S
Al1941     O1949   1.898       .  S
Al1941     O1951   1.912       .  S
Al1941     O1950   1.725       .  S
C1942      O1955   1.266       .  A
O1943      C1953   1.283       .  A
O1943     Al1945   1.969       .  S
O1944      C1957   1.267       .  A
Al1945     O1955   1.982       .  S
Al1945     O1950   1.756       .  S
O1946      C1953   1.255       .  A
O1946     Al1954   1.857       .  S
O1947      C1956   1.258       .  A
O1947     Al1954   1.940       .  S
O1948     Al1954   1.953       .  S
O1949      C1956   1.240       .  A
O1950     Al1954   1.753       .  S
O1951      C1952   1.299       .  A
C1957      O1958   1.263       .  A
O1959      C1974   1.286       .  A
O1959     Al1967   1.950   1_554  S
C1960      O1970   1.285       .  A
C1960      O1961   1.282       .  A
O1961     Al1963   1.915       .  S
O1962      C1964   1.225       .  A
O1962     Al1963   1.787       .  S
Al1963     O1971   1.899   1_556  S
Al1963     O1973   1.912   1_556  S
Al1963     O1972   1.725       .  S
C1964      O1977   1.266       .  A
C1964      C2000   1.468       .  S
O1965      C1975   1.283       .  A
O1965     Al1967   1.969       .  S
O1966      C1979   1.267   1_554  A
O1966     Al1976   1.912   1_554  S
Al1967     O1980   1.912       .  S
Al1967     O1977   1.981       .  S
Al1967     O1972   1.756       .  S
O1968      C1975   1.255       .  A
O1968     Al1976   1.857       .  S
O1969      C1978   1.258       .  A
O1969     Al1976   1.940   1_554  S
O1970     Al1976   1.953       .  S
O1971      C1978   1.241       .  A
O1972     Al1976   1.753       .  S
O1973      C1974   1.299       .  A
C1974      C2019   1.471       .  S
C1978      C1986   1.469       .  S
C1979      O1980   1.263       .  A
O1981      C1996   1.286       .  A
O1981     Al1989   1.950   1_556  S
C1982      O1992   1.285       .  A
C1982      O1983   1.282       .  A
C1982      C2004   1.483       .  S
O1983     Al1985   1.915       .  S
O1984      C1986   1.225       .  A
Al1985     O1993   1.898   1_554  S
Al1985     O1995   1.912   1_554  S
Al1985     O1994   1.726       .  S
C1986      O1999   1.266       .  A
O1987      C1997   1.284       .  A
O1987     Al1989   1.969       .  S
O1988      C2001   1.267   1_556  A
O1988     Al1998   1.911   1_556  S
Al1989     O2002   1.913       .  S
Al1989     O1994   1.756       .  S
O1990      C1997   1.255       .  A
O1990     Al1998   1.857       .  S
O1991      C2000   1.258       .  A
O1991     Al1998   1.940   1_556  S
O1992     Al1998   1.953       .  S
O1993      C2000   1.241       .  A
O1994     Al1998   1.753       .  S
O1995      C1996   1.299       .  A
C1997      C2040   1.471       .  S
C2001      O2002   1.263       .  A
C2001      C2243   1.461   1_554  S
O2003      C2018   1.286       .  A
O2003     Al2011   1.950       .  S
C2004      O2014   1.285       .  A
C2004      O2005   1.282       .  A
O2005     Al2007   1.915       .  S
O2006      C2008   1.225       .  A
Al2007     O2015   1.899       .  S
Al2007     O2017   1.912       .  S
Al2007     O2016   1.726       .  S
C2008      O2021   1.266       .  A
C2008      C2044   1.469       .  S
O2009      C2019   1.284       .  A
O2009     Al2011   1.969       .  S
O2010      C2023   1.267       .  A
O2010     Al2020   1.911       .  S
Al2011     O2024   1.913       .  S
Al2011     O2016   1.756       .  S
O2012      C2019   1.255       .  A
O2012     Al2020   1.857       .  S
O2013      C2022   1.258       .  A
O2013     Al2020   1.940       .  S
O2014     Al2020   1.953       .  S
O2015      C2022   1.241       .  A
O2016     Al2020   1.753       .  S
O2017      C2018   1.299       .  A
C2022      C2030   1.468       .  S
C2023      O2024   1.263       .  A
C2023      C2045   1.461       .  S
O2025      C2040   1.286       .  A
O2025     Al2297   1.950       .  S
C2026      O2036   1.285       .  A
C2026      O2027   1.282       .  A
C2026      C2048   1.483       .  S
O2028      C2030   1.225       .  A
O2028     Al2029   1.787       .  S
Al2029     O2291   1.915       .  S
Al2029     O2301   1.899       .  S
Al2029     O2039   1.912       .  S
Al2029     O2302   1.725       .  S
C2030      O2043   1.266       .  A
O2031      C2041   1.283       .  A
O2031     Al2033   1.969       .  S
O2032      C2045   1.267       .  A
O2032     Al2042   1.911       .  S
Al2033     O2046   1.912       .  S
Al2033     O2038   1.756       .  S
O2034      C2041   1.255       .  A
O2034     Al2042   1.857       .  S
O2035      C2044   1.258       .  A
O2035     Al2042   1.940       .  S
O2036     Al2042   1.953       .  S
O2037      C2044   1.241       .  A
O2038     Al2042   1.753       .  S
O2039      C2040   1.299       .  A
C2041      C2084   1.470       .  S
O2043     Al2297   1.981       .  S
C2045      O2046   1.263       .  A
O2047      C2062   1.286       .  A
O2047     Al2319   1.950       .  S
C2048      O2058   1.285       .  A
C2048      O2049   1.282       .  A
O2050      C2052   1.225       .  A
O2050     Al2051   1.787       .  S
Al2051     O2313   1.915       .  S
Al2051     O2323   1.898       .  S
Al2051     O2061   1.912       .  S
Al2051     O2324   1.725       .  S
C2052      O2065   1.266       .  A
C2052      C2088   1.468       .  S
O2053      C2063   1.284       .  A
O2053     Al2055   1.969       .  S
O2054      C2067   1.267       .  A
Al2055     O2060   1.756       .  S
O2056      C2063   1.255       .  A
O2056     Al2064   1.857       .  S
O2057      C2066   1.258       .  A
O2057     Al2064   1.940       .  S
O2058     Al2064   1.953       .  S
O2059      C2066   1.240       .  A
O2060     Al2064   1.753       .  S
O2061      C2062   1.299       .  A
C2062      C2107   1.470       .  S
O2065     Al2319   1.982       .  S
C2066      C2074   1.468       .  S
C2067      O2068   1.263       .  A
C2067      C2089   1.461       .  S
O2069      C2084   1.286       .  A
O2069     Al2077   1.950       .  S
C2070      O2080   1.285       .  A
C2070      O2071   1.282       .  A
C2070      C2092   1.483       .  S
O2071     Al2073   1.915       .  S
O2072      C2074   1.225       .  A
O2072     Al2073   1.787       .  S
Al2073     O2081   1.898       .  S
Al2073     O2083   1.912       .  S
Al2073     O2082   1.725       .  S
C2074      O2087   1.266       .  A
O2075      C2085   1.283       .  A
O2075     Al2077   1.969       .  S
O2076      C2089   1.267       .  A
O2076     Al2086   1.912       .  S
Al2077     O2090   1.913       .  S
Al2077     O2087   1.982       .  S
Al2077     O2082   1.756       .  S
O2078      C2085   1.255       .  A
O2078     Al2086   1.857       .  S
O2079      C2088   1.258       .  A
O2079     Al2086   1.940       .  S
O2080     Al2086   1.953       .  S
O2081      C2088   1.240       .  A
O2082     Al2086   1.753       .  S
O2083      C2084   1.299       .  A
C2089      O2090   1.263       .  A
O2091      C2106   1.286       .  A
O2091     Al2099   1.950       .  S
C2092      O2102   1.285       .  A
C2092      O2093   1.282       .  A
O2093     Al2095   1.915       .  S
O2094      C2096   1.225   1_655  A
O2094     Al2095   1.787       .  S
Al2095     O2103   1.899       .  S
Al2095     O2105   1.912       .  S
Al2095     O2104   1.725       .  S
C2096      O2109   1.266       .  A
O2097      C2107   1.283       .  A
O2097     Al2099   1.969   1_655  S
O2098      C2111   1.267       .  A
O2098     Al2108   1.912       .  S
Al2099     O2112   1.912       .  S
Al2099     O2109   1.981       .  S
Al2099     O2104   1.756   1_455  S
O2100      C2107   1.255       .  A
O2100     Al2108   1.857       .  S
O2101      C2110   1.258       .  A
O2101     Al2108   1.940       .  S
O2102     Al2108   1.953       .  S
O2103      C2110   1.241       .  A
O2104     Al2108   1.753       .  S
O2105      C2106   1.299   1_655  A
C2111      O2112   1.263   1_655  A
C2111      C2133   1.461   1_655  S
O2113      C2128   1.286       .  A
O2113     Al2121   1.950       .  S
C2114      O2115   1.282       .  A
C2114      C2136   1.483       .  S
O2115     Al2117   1.915       .  S
O2116      C2118   1.225       .  A
O2116     Al2117   1.787       .  S
Al2117     O2125   1.898       .  S
Al2117     O2127   1.911       .  S
Al2117     O2126   1.726       .  S
C2118      O2131   1.266       .  A
C2118      C2374   1.468       .  S
O2119      C2129   1.284       .  A
O2119     Al2121   1.969       .  S
O2120      C2133   1.267   1_655  A
O2120     Al2130   1.911   1_655  S
Al2121     O2131   1.982       .  S
Al2121     O2126   1.756       .  S
O2122     Al2130   1.857       .  S
O2123      C2132   1.258       .  A
O2123     Al2130   1.940       .  S
O2124     Al2130   1.953       .  S
O2127      C2128   1.299       .  A
C2128      C2349   1.470       .  S
C2132      C2360   1.468       .  S
C2133      O2134   1.263       .  A
O2135      C2150   1.286       .  A
O2135     Al2143   1.950       .  S
C2136      O2137   1.282       .  A
O2137     Al2139   1.915       .  S
O2138      C2140   1.225       .  A
O2138     Al2139   1.787       .  S
Al2139     O2147   1.899       .  S
Al2139     O2149   1.912       .  S
Al2139     O2148   1.726       .  S
C2140      O2153   1.266       .  A
C2140      C2176   1.469       .  S
O2141      C2151   1.284       .  A
O2141     Al2143   1.969       .  S
O2142      C2155   1.267   1_655  A
O2142     Al2152   1.911   1_655  S
Al2143     O2153   1.982       .  S
Al2143     O2148   1.756       .  S
O2144     Al2152   1.857       .  S
O2145      C2154   1.258       .  A
O2145     Al2152   1.940       .  S
O2146     Al2152   1.953       .  S
O2149      C2150   1.299       .  A
C2150      C2195   1.470       .  S
C2154      C2162   1.468       .  S
C2155      O2156   1.263       .  A
C2155      C2177   1.461   1_455  S
O2157      C2172   1.286       .  A
O2157     Al2165   1.950       .  S
C2158      O2168   1.285   1_545  A
C2158      C2180   1.483       .  S
O2159     Al2161   1.915       .  S
O2160      C2162   1.225   1_655  A
O2160     Al2161   1.787       .  S
Al2161     O2171   1.912       .  S
C2162      O2175   1.266       .  A
O2163     Al2165   1.969   1_655  S
O2164      C2177   1.267       .  A
O2164     Al2174   1.911       .  S
Al2165     O2175   1.981       .  S
O2166      C2173   1.255       .  A
O2166     Al2174   1.857       .  S
O2167      C2176   1.258       .  A
O2167     Al2174   1.940       .  S
O2168     Al2174   1.953       .  S
O2169      C2176   1.241   1_545  A
O2170     Al2174   1.753   1_545  S
O2171      C2172   1.299   1_655  A
C2173      C2216   1.470       .  S
C2177      O2178   1.263   1_665  A
O2179      C2194   1.286       .  A
O2179     Al2187   1.950       .  S
C2180      O2190   1.285   1_545  A
O2181     Al2183   1.915       .  S
O2182      C2184   1.225       .  A
O2182     Al2183   1.787       .  S
Al2183     O2193   1.911       .  S
C2184      O2197   1.266       .  A
C2184      C2220   1.468       .  S
O2185     Al2187   1.969       .  S
O2186      C2199   1.267       .  A
O2186     Al2196   1.912       .  S
Al2187     O2197   1.982       .  S
O2188      C2195   1.255       .  A
O2188     Al2196   1.857       .  S
O2189      C2198   1.258       .  A
O2189     Al2196   1.940       .  S
O2190     Al2196   1.953       .  S
O2191      C2198   1.240   1_545  A
O2192     Al2196   1.753   1_545  S
O2193      C2194   1.299       .  A
C2194      C2239   1.470       .  S
C2198      C2206   1.468       .  S
C2199      O2200   1.263   1_565  A
C2199      C2221   1.461       .  S
O2201      C2216   1.286       .  A
O2201     Al2209   1.950       .  S
C2202      O2212   1.285       .  A
C2202      O2203   1.282       .  A
C2202      C2224   1.483       .  S
O2203     Al2205   1.915       .  S
O2204      C2206   1.225       .  A
O2204     Al2205   1.787       .  S
Al2205     O2213   1.898       .  S
Al2205     O2215   1.912       .  S
Al2205     O2214   1.725       .  S
C2206      O2219   1.266       .  A
O2207      C2217   1.283       .  A
O2207     Al2209   1.969       .  S
O2208      C2221   1.267       .  A
Al2209     O2219   1.982       .  S
Al2209     O2214   1.756       .  S
O2210      C2217   1.255       .  A
O2210     Al2218   1.857       .  S
O2211      C2220   1.258       .  A
O2211     Al2218   1.940       .  S
O2212     Al2218   1.953       .  S
O2213      C2220   1.240       .  A
O2214     Al2218   1.753       .  S
O2215      C2216   1.299       .  A
C2221      O2222   1.263       .  A
O2223      C2238   1.286       .  A
O2223     Al2231   1.950   1_554  S
C2224      O2234   1.285       .  A
C2224      O2225   1.282       .  A
O2225     Al2227   1.915       .  S
O2226      C2228   1.225       .  A
O2226     Al2227   1.787       .  S
Al2227     O2235   1.899   1_556  S
Al2227     O2237   1.912   1_556  S
Al2227     O2236   1.725       .  S
C2228      O2241   1.266       .  A
C2228      C2264   1.468       .  S
O2229      C2239   1.283       .  A
O2229     Al2231   1.969       .  S
O2230      C2243   1.267   1_554  A
O2230     Al2240   1.912   1_554  S
Al2231     O2244   1.912       .  S
Al2231     O2241   1.981       .  S
Al2231     O2236   1.756       .  S
O2232      C2239   1.255       .  A
O2232     Al2240   1.857       .  S
O2233      C2242   1.258       .  A
O2233     Al2240   1.940   1_554  S
O2234     Al2240   1.953       .  S
O2235      C2242   1.241       .  A
O2236     Al2240   1.753       .  S
O2237      C2238   1.299       .  A
C2238      C2283   1.471       .  S
C2242      C2250   1.469       .  S
C2243      O2244   1.263       .  A
O2245      C2260   1.286       .  A
O2245     Al2253   1.950   1_556  S
C2246      O2256   1.285       .  A
C2246      O2247   1.282       .  A
C2246      C2268   1.483       .  S
O2247     Al2249   1.915       .  S
O2248      C2250   1.225       .  A
Al2249     O2257   1.898   1_554  S
Al2249     O2259   1.912   1_554  S
Al2249     O2258   1.726       .  S
C2250      O2263   1.266       .  A
O2251      C2261   1.284       .  A
O2251     Al2253   1.969       .  S
O2252      C2265   1.267   1_556  A
O2252     Al2262   1.911   1_556  S
Al2253     O2266   1.913       .  S
Al2253     O2258   1.756       .  S
O2254      C2261   1.255       .  A
O2254     Al2262   1.857       .  S
O2255      C2264   1.258       .  A
O2255     Al2262   1.940   1_556  S
O2256     Al2262   1.953       .  S
O2257      C2264   1.241       .  A
O2258     Al2262   1.753       .  S
O2259      C2260   1.299       .  A
C2261      C2304   1.471       .  S
C2265      O2266   1.263       .  A
O2267      C2282   1.286       .  A
O2267     Al2275   1.950       .  S
C2268      O2278   1.285       .  A
C2268      O2269   1.282       .  A
O2269     Al2271   1.915       .  S
O2270      C2272   1.225       .  A
Al2271     O2279   1.899       .  S
Al2271     O2281   1.912       .  S
Al2271     O2280   1.726       .  S
C2272      O2285   1.266       .  A
C2272      C2308   1.469       .  S
O2273      C2283   1.284       .  A
O2273     Al2275   1.969       .  S
O2274      C2287   1.267       .  A
O2274     Al2284   1.911       .  S
Al2275     O2288   1.913       .  S
Al2275     O2280   1.756       .  S
O2276      C2283   1.255       .  A
O2276     Al2284   1.857       .  S
O2277      C2286   1.258       .  A
O2277     Al2284   1.940       .  S
O2278     Al2284   1.953       .  S
O2279      C2286   1.241       .  A
O2280     Al2284   1.753       .  S
O2281      C2282   1.299       .  A
C2286      C2294   1.468       .  S
C2287      O2288   1.263       .  A
C2287      C2309   1.461       .  S
O2289      C2304   1.286       .  A
C2290      O2300   1.285       .  A
C2290      O2291   1.282       .  A
C2290      C2312   1.483       .  S
O2292      C2294   1.225       .  A
O2292     Al2293   1.787       .  S
Al2293     O2303   1.912       .  S
C2294      O2307   1.266       .  A
O2295      C2305   1.283       .  A
O2295     Al2297   1.969       .  S
O2296      C2309   1.267       .  A
O2296     Al2306   1.911       .  S
Al2297     O2310   1.912       .  S
Al2297     O2302   1.756       .  S
O2298      C2305   1.255       .  A
O2298     Al2306   1.857       .  S
O2299      C2308   1.258       .  A
O2299     Al2306   1.940       .  S
O2300     Al2306   1.953       .  S
O2301      C2308   1.241       .  A
O2302     Al2306   1.753       .  S
O2303      C2304   1.299       .  A
C2305      C2348   1.470       .  S
C2309      O2310   1.263       .  A
O2311      C2326   1.286       .  A
C2312      O2322   1.285       .  A
C2312      O2313   1.282       .  A
O2314      C2316   1.225       .  A
O2314     Al2315   1.787       .  S
Al2315     O2325   1.912       .  S
C2316      O2329   1.266       .  A
C2316      C2352   1.468       .  S
O2317      C2327   1.284       .  A
O2317     Al2319   1.969       .  S
O2318      C2331   1.267       .  A
Al2319     O2324   1.756       .  S
O2320      C2327   1.255       .  A
O2320     Al2328   1.857       .  S
O2321      C2330   1.258       .  A
O2321     Al2328   1.940       .  S
O2322     Al2328   1.953       .  S
O2323      C2330   1.240       .  A
O2324     Al2328   1.753       .  S
O2325      C2326   1.299       .  A
C2326      C2371   1.470       .  S
C2330      C2338   1.468       .  S
C2331      O2332   1.263       .  A
C2331      C2353   1.461       .  S
O2333      C2348   1.286       .  A
O2333     Al2341   1.950       .  S
C2334      O2344   1.285       .  A
C2334      O2335   1.282       .  A
C2334      C2356   1.483       .  S
O2335     Al2337   1.915       .  S
O2336      C2338   1.225       .  A
O2336     Al2337   1.787       .  S
Al2337     O2345   1.898       .  S
Al2337     O2347   1.912       .  S
Al2337     O2346   1.725       .  S
C2338      O2351   1.266       .  A
O2339      C2349   1.283       .  A
O2339     Al2341   1.969       .  S
O2340      C2353   1.267       .  A
O2340     Al2350   1.912       .  S
Al2341     O2354   1.913       .  S
Al2341     O2351   1.982       .  S
Al2341     O2346   1.756       .  S
O2342      C2349   1.255       .  A
O2342     Al2350   1.857       .  S
O2343      C2352   1.258       .  A
O2343     Al2350   1.940       .  S
O2344     Al2350   1.953       .  S
O2345      C2352   1.240       .  A
O2346     Al2350   1.753       .  S
O2347      C2348   1.299       .  A
C2353      O2354   1.263       .  A
O2355      C2370   1.286       .  A
O2355     Al2363   1.950       .  S
C2356      O2366   1.285       .  A
C2356      O2357   1.282       .  A
O2357     Al2359   1.915       .  S
O2358      C2360   1.225   1_655  A
O2358     Al2359   1.787       .  S
Al2359     O2367   1.899       .  S
Al2359     O2369   1.912       .  S
Al2359     O2368   1.725       .  S
C2360      O2373   1.266       .  A
O2361      C2371   1.283       .  A
O2361     Al2363   1.969   1_655  S
O2362      C2375   1.267       .  A
O2362     Al2372   1.912       .  S
Al2363     O2376   1.912       .  S
Al2363     O2373   1.981       .  S
Al2363     O2368   1.756   1_455  S
O2364      C2371   1.255       .  A
O2364     Al2372   1.857       .  S
O2365      C2374   1.258       .  A
O2365     Al2372   1.940       .  S
O2366     Al2372   1.953       .  S
O2367      C2374   1.241       .  A
O2368     Al2372   1.753       .  S
O2369      C2370   1.299   1_655  A
C2375      O2376   1.263   1_655  A
