geometry optimzed in LAMMPS
_audit_creation_date              2020-12-01 
_audit_creation_method            'lammps2cif' 
_symmetry_space_group_name_H-M    'P1' 
_symmetry_Int_Tables_number       1 
_symmetry_cell_setting            triclinic 
loop_ 
_symmetry_equiv_pos_as_xyz 
  x,y,z 
_cell_length_a                    46.61613952 
_cell_length_b                    46.66551922226903 
_cell_length_c                    36.8002222724793 
_cell_angle_alpha                 89.78532803285141 
_cell_angle_beta                  90.10620835669646 
_cell_angle_gamma                 119.80926122510203 
loop_ 
_atom_site_label 
_atom_site_type_symbol 
_atom_site_fract_x 
_atom_site_fract_y 
_atom_site_fract_z 
_atom_site_charge 
O1          O  0.56358401  0.46513219  0.09132513    -0.85900
O2          O  0.56509069  0.51083600  0.03961218    -0.82900
C3          C  0.53826059  0.51127845  0.04485780     0.97600
O4          O  0.53320703  0.51981379  0.07553035    -0.83000
O5          O  0.54130111  0.53882241  0.14855458    -0.85600
C6          C  0.53248773  0.51367535  0.16891549     1.02100
O7          O  0.54691677  0.49728210  0.16687127    -0.78400
O8          O  0.58518510  0.47292554  0.14553749    -0.78600
C9          C  0.56368689  0.45404649  0.12281906     1.02100
O10         O  0.63475784  0.50674391  0.10349686    -0.85900
O11         O  0.63313161  0.55485052  0.06108970    -0.82900
C12         C  0.62772566  0.57841189  0.05495292     0.97600
O13         O  0.59894501  0.57439857  0.05936349    -0.83000
O14         O  0.60741246  0.59022620  0.12985243    -0.85600
C15         C  0.61037308  0.58908655  0.16350752     1.02100
O16         O  0.60198158  0.56170239  0.17888308    -0.78400
O17         O  0.64140757  0.53895070  0.14936722    -0.78500
C18         C  0.65206665  0.52397248  0.13026819     1.02000
Cr19       Cr  0.59832406  0.51022377  0.07586716     1.93700
Cr20       Cr  0.57101467  0.55368390  0.10384194     1.93200
Cr21       Cr  0.59376339  0.51855829  0.15702099     1.39100
O22         O  0.58748213  0.52747201  0.11219691    -1.23600
O23         O  0.34692479  0.48909971  0.36280797    -0.85900
O24         O  0.35150820  0.44246421  0.40500099    -0.82900
C25         C  0.35947477  0.42103124  0.41303012     0.97600
O26         O  0.38850718  0.42629814  0.40716866    -0.83000
O27         O  0.37880358  0.40942762  0.33727508    -0.85600
C28         C  0.37490207  0.40934891  0.30364565     1.02100
O29         O  0.38191750  0.43607721  0.28742977    -0.78400
O30         O  0.34138191  0.45678759  0.31752519    -0.78600
C31         C  0.33007390  0.47130690  0.33615730     1.02100
O32         O  0.41741520  0.53281056  0.37472162    -0.85900
O33         O  0.41889928  0.48880027  0.42560719    -0.82900
C34         C  0.44643648  0.48996342  0.41980944     0.97600
O35         O  0.45204049  0.48268444  0.38875972    -0.83000
O36         O  0.44365212  0.46246214  0.31650436    -0.85600
C37         C  0.45141767  0.48728899  0.29597504     1.02100
O38         O  0.43560259  0.50231347  0.29762201    -0.78400
O39         O  0.39597416  0.52444684  0.32024765    -0.78500
C40         C  0.41694330  0.54365792  0.34326288     1.02000
Cr41       Cr  0.38446446  0.48753760  0.39000333     1.93700
Cr42       Cr  0.41484633  0.44716191  0.36181908     1.93200
Cr43       Cr  0.38889110  0.47919300  0.30874514     1.39100
O44         O  0.39638449  0.47144644  0.35351798    -1.23600
O45         O  0.55298949  0.75942179  0.26023881    -0.85900
O46         O  0.59753083  0.75893928  0.20884461    -0.82900
C47         C  0.62442749  0.78595503  0.21407328     0.97600
O48         O  0.63809126  0.79149020  0.24476823    -0.83000
O49         O  0.64998192  0.78382300  0.31741926    -0.85600
C50         C  0.63367241  0.79276739  0.33756128     1.02100
O51         O  0.60283648  0.77821559  0.33569165    -0.78400
O52         O  0.54006887  0.73779854  0.31459856    -0.78600
C53         C  0.54142741  0.75861418  0.29159376     1.02100
O54         O  0.52570110  0.68827277  0.27347741    -0.85900
O55         O  0.57549934  0.69157722  0.23076243    -0.82900
C56         C  0.60458415  0.69777406  0.22424721     0.97600
O57         O  0.62877677  0.72671475  0.22853737    -0.83000
O58         O  0.63649250  0.71795008  0.29899167    -0.85600
C59         C  0.63245973  0.71485042  0.33265919     1.02100
O60         O  0.61411725  0.72397307  0.34816895    -0.78400
O61         O  0.55302553  0.68368835  0.31898393    -0.78500
C62         C  0.52732563  0.67146721  0.30007458     1.02000
Cr63       Cr  0.56451944  0.72545894  0.24529786     1.93700
Cr64       Cr  0.63551313  0.75418995  0.27296082     1.93200
Cr65       Cr  0.57836619  0.73112872  0.32630747     1.39100
O66         O  0.59299718  0.73723980  0.28143559    -1.23600
O67         O  0.79196099  0.97507326  0.03358774    -0.85900
O68         O  0.74084789  0.96939858  0.07582351    -0.82900
C69         C  0.71137609  0.96119272  0.08345229     0.97600
O70         O  0.68813596  0.93184016  0.07859438    -0.83000
O71         O  0.68197798  0.94088272  0.51028484    -0.85600
C72         C  0.68523645  0.94447275  0.47660482     1.02100
O73         O  0.70450025  0.93694838  0.46031704    -0.78400
O74         O  0.76520289  0.97726417  0.49028015    -0.78600
C75         C  0.79040580  0.98971671  0.50996533     1.02100
O76         O  0.76829610  0.90493988  0.04725424    -0.85900
O77         O  0.72235884  0.90290327  0.09832075    -0.82900
C78         C  0.69642862  0.87501175  0.09324371     0.97600
O79         O  0.68275732  0.86858840  0.06249844    -0.83000
O80         O  0.66993072  0.87530060  0.98954564    -0.85600
C81         C  0.68683244  0.86861809  0.46793649     1.02100
O82         O  0.71747229  0.88333583  0.47121907    -0.78400
O83         O  0.77936890  0.92359138  0.49319806    -0.78500
C84         C  0.78004504  0.90577924  0.01603806     1.02000
Cr85       Cr  0.75426076  0.93712668  0.06173497     1.93700
Cr86       Cr  0.68305350  0.90478036  0.03412776     1.93200
Cr87       Cr  0.74080780  0.93003733  0.48171300     1.39100
O88         O  0.72577493  0.92389426  0.02560064    -1.23600
O89         O  0.88188700  0.42294903  0.09127472    -0.85900
O90         O  0.92534589  0.42205967  0.03934329    -0.82900
C91         C  0.95167805  0.44968666  0.04362350     0.97600
O92         O  0.96556004  0.45633787  0.07429573    -0.83000
O93         O  0.97982925  0.45026406  0.14722067    -0.85600
C94         C  0.96330540  0.45763621  0.16892820     1.02100
O95         O  0.93247310  0.44290518  0.16661623    -0.78400
O96         O  0.86987503  0.40210310  0.14616557    -0.78600
C97         C  0.87116617  0.42275701  0.12289931     1.02100
O98         O  0.85544213  0.35236112  0.10571530    -0.85900
O99         O  0.90524200  0.35553204  0.06292644    -0.82900
C100        C  0.93453485  0.36245945  0.05616641     0.97600
O101        O  0.95816389  0.39194292  0.05910206    -0.83000
O102        O  0.96870127  0.38565735  0.12924434    -0.85600
C103        C  0.96508944  0.38240018  0.16298926     1.02100
O104        O  0.94520257  0.38943086  0.17867537    -0.78400
O105        O  0.88353843  0.34818915  0.15070666    -0.78500
C106        C  0.85747413  0.33580676  0.13220857     1.02000
Cr107      Cr  0.89358723  0.38912117  0.07676010     1.93700
Cr108      Cr  0.96519505  0.42024351  0.10297462     1.93200
Cr109      Cr  0.90859265  0.39582706  0.15751774     1.39100
O110        O  0.92267031  0.40192861  0.11242494    -1.23600
O111        O  0.12334684  0.63716700  0.36632821    -0.85900
O112        O  0.07391466  0.63595609  0.40786733    -0.82900
C113        C  0.04544411  0.63157412  0.41480067     0.97600
O114        O  0.01973213  0.60467910  0.40645253    -0.83000
O115        O  0.01508047  0.61244582  0.33490404    -0.85600
C116        C  0.01918553  0.61437717  0.30120255     1.02100
O117        O  0.03810545  0.60537607  0.28707756    -0.78400
O118        O  0.09987779  0.64443385  0.31827472    -0.78600
C119        C  0.12423798  0.65494261  0.33949305     1.02100
O120        O  0.09244434  0.56543594  0.37835965    -0.85900
O121        O  0.04899120  0.56856135  0.42850188    -0.82900
C122        C  0.02100693  0.54284361  0.42408214     0.97600
O123        O  0.00715583  0.53795645  0.39344994    -0.83000
O124        O  0.99901737  0.54541614  0.31916143    -0.85600
C125        C  0.01502039  0.53598150  0.29922588     1.02100
O126        O  0.04582082  0.54959234  0.30213083    -0.78400
O127        O  0.10854534  0.58802532  0.32484193    -0.78500
C128        C  0.10492863  0.56622476  0.34764578     1.02000
Cr129      Cr  0.08306282  0.60096514  0.39290761     1.93700
Cr130      Cr  0.01329961  0.57588522  0.36298709     1.93200
Cr131      Cr  0.07197731  0.59669951  0.31131843     1.39100
O132        O  0.05587689  0.59111087  0.35586772    -1.23600
O133        O  0.86063991  0.77014623  0.42333134    -0.85900
O134        O  0.81624942  0.72590265  0.37209279    -0.82900
C135        C  0.81618058  0.69882481  0.37717778     0.97600
O136        O  0.80816262  0.68511011  0.40795793    -0.83000
O137        O  0.78861482  0.67347340  0.48132046    -0.85600
C138        C  0.81348052  0.69031586  0.50183379     1.02100
O139        O  0.83217219  0.72379746  0.00030062    -0.78400
O140        O  0.85194720  0.78295000  0.47761237    -0.78600
C141        C  0.87123935  0.78089200  0.45488330     1.02100
O142        O  0.81692141  0.79775863  0.43583701    -0.85900
O143        O  0.77061692  0.74786597  0.39328779    -0.82900
C144        C  0.74762651  0.71876358  0.38762315     0.97600
O145        O  0.75271698  0.69461638  0.39141618    -0.83000
O146        O  0.73583930  0.68630523  0.46131085    -0.85600
C147        C  0.73938508  0.69392703  0.99756754     1.02100
O148        O  0.76662023  0.71296054  0.01327031    -0.78400
O149        O  0.78899729  0.77566179  0.98461268    -0.78500
C150        C  0.79844428  0.79639057  0.46211041     1.02000
Cr151      Cr  0.81536939  0.75881134  0.40809720     1.93700
Cr152      Cr  0.77342184  0.68771809  0.43603668     1.93200
Cr153      Cr  0.81000632  0.74876943  0.99139401     1.39100
O154        O  0.79855332  0.73033342  0.44431415    -1.23600
O155        O  0.83593308  0.52989702  0.19688742    -0.85900
O156        O  0.88189295  0.58016268  0.23968989    -0.82900
C157        C  0.90344043  0.60947443  0.24729756     0.97600
O158        O  0.89703042  0.63269919  0.24344572    -0.83000
O159        O  0.91495427  0.64218383  0.17352570    -0.85600
C160        C  0.91513746  0.63877975  0.13986228     1.02100
O161        O  0.88836297  0.61957158  0.12343189    -0.78400
O162        O  0.86746750  0.55732227  0.15114509    -0.78600
C163        C  0.85470335  0.53191983  0.17069575     1.02100
O164        O  0.79097489  0.55526297  0.21005775    -0.85900
O165        O  0.83450858  0.59991039  0.26168517    -0.82900
C166        C  0.83286950  0.62610268  0.25652280     0.97600
O167        O  0.84046396  0.63987754  0.22576617    -0.83000
O168        O  0.86189141  0.65391104  0.15349329    -0.85600
C169        C  0.83744181  0.63737010  0.13251556     1.02100
O170        O  0.82174912  0.60665886  0.13462028    -0.78400
O171        O  0.79967539  0.54422751  0.15490268    -0.78500
C172        C  0.77999239  0.54440355  0.17863850     1.02000
Cr173      Cr  0.83657553  0.56793834  0.22509473     1.93700
Cr174      Cr  0.87659514  0.63929233  0.19845607     1.93200
Cr175      Cr  0.84498806  0.58276127  0.14410107     1.39100
O176        O  0.85262730  0.59677725  0.18920621    -1.23600
O177        O  0.68314411  0.15298883  0.20022384    -0.85900
O178        O  0.68600759  0.10663840  0.24403008    -0.82900
C179        C  0.69218956  0.08385046  0.25135390     0.97600
O180        O  0.72127195  0.08840728  0.24739123    -0.83000
O181        O  0.71498004  0.07319949  0.17727796    -0.85600
C182        C  0.71236575  0.07361038  0.14350596     1.02100
O183        O  0.72085294  0.10079864  0.12757915    -0.78400
O184        O  0.67928797  0.12106018  0.15524584    -0.78600
C185        C  0.66713430  0.13523856  0.17304532     1.02100
O186        O  0.75351920  0.19669701  0.21524925    -0.85900
O187        O  0.75264292  0.15188123  0.26716765    -0.82900
C188        C  0.77979025  0.15180503  0.26334248     0.97600
O189        O  0.78647534  0.14460696  0.23268928    -0.83000
O190        O  0.78076537  0.12592609  0.15898679    -0.85600
C191        C  0.78891064  0.15092385  0.13843520     1.02100
O192        O  0.77415905  0.16686274  0.14122434    -0.78400
O193        O  0.73334412  0.18845127  0.16027966    -0.78500
C194        C  0.75380615  0.20761612  0.18367239     1.02000
Cr195      Cr  0.71976097  0.15134652  0.22971985     1.93700
Cr196      Cr  0.75017727  0.11012330  0.20352355     1.93200
Cr197      Cr  0.72703176  0.14355460  0.14909070     1.39100
O198        O  0.73257264  0.13506503  0.19423957    -1.23600
O199        O  0.89855930  0.12749865  0.43349920    -0.85900
O200        O  0.89820767  0.17062371  0.38030204    -0.82900
C201        C  0.87062676  0.16968681  0.38430070     0.97600
O202        O  0.86406859  0.17721843  0.41479792    -0.83000
O203        O  0.87010775  0.19778197  0.48712750    -0.85600
C204        C  0.86241980  0.17340672  0.50836663     1.02100
O205        O  0.87870753  0.15946147  0.00416101    -0.78400
O206        O  0.91956186  0.13709187  0.48826791    -0.78600
C207        C  0.89902788  0.11733886  0.46533319     1.02100
O208        O  0.96880414  0.17204683  0.44658546    -0.85900
O209        O  0.96481516  0.21729202  0.40246354    -0.82900
C210        C  0.95778528  0.23946787  0.39498600     0.97600
O211        O  0.92837802  0.23397683  0.39851953    -0.83000
O212        O  0.93488546  0.25144171  0.46815771    -0.85600
C213        C  0.94036199  0.25259035  0.99940312     1.02100
O214        O  0.93230585  0.22558779  0.01564911    -0.78400
O215        O  0.97352313  0.20476718  0.98744713    -0.78500
C216        C  0.98544490  0.19073658  0.47276064     1.02000
Cr217      Cr  0.93166161  0.17259664  0.41769196     1.93700
Cr218      Cr  0.90024556  0.21310834  0.44280084     1.93200
Cr219      Cr  0.92580108  0.18255832  0.99466451     1.39100
O220        O  0.91895535  0.18926860  0.45295176    -1.23600
O221        O  0.18980896  0.43707550  0.26311710    -0.85900
O222        O  0.14648667  0.39263089  0.21113970    -0.82900
C223        C  0.14788989  0.36635818  0.21619795     0.97600
O224        O  0.14016393  0.35243698  0.24676631    -0.83000
O225        O  0.11993606  0.33862696  0.31911667    -0.85600
C226        C  0.14448487  0.35552671  0.33986075     1.02100
O227        O  0.16004401  0.38629179  0.33698521    -0.78400
O228        O  0.17979055  0.44870586  0.31717707    -0.78600
C229        C  0.20002509  0.44827519  0.29470825     1.02100
O230        O  0.14345475  0.46138454  0.27567417    -0.85900
O231        O  0.09878847  0.41160847  0.23231388    -0.82900
C232        C  0.07734867  0.38238680  0.22430476     0.97600
O233        O  0.08291630  0.35870320  0.22950282    -0.83000
O234        O  0.06601845  0.34961491  0.29988277    -0.85600
C235        C  0.06643731  0.35331305  0.33354669     1.02100
O236        O  0.09345143  0.37230266  0.34945753    -0.78400
O237        O  0.11199012  0.43349741  0.32139352    -0.78500
C238        C  0.12408134  0.45867873  0.30149586     1.02000
Cr239      Cr  0.14398360  0.42408583  0.24755878     1.93700
Cr240      Cr  0.10418701  0.35268469  0.27434561     1.93200
Cr241      Cr  0.13570161  0.40933376  0.32828398     1.39100
O242        O  0.12788135  0.39520449  0.28330585    -1.23600
O243        O  0.16913998  0.20164885  0.03574756    -0.85900
O244        O  0.21584078  0.25109731  0.07878362    -0.82900
C245        C  0.23852559  0.28006273  0.08586934     0.97600
O246        O  0.23391594  0.30446915  0.08125640    -0.83000
O247        O  0.25054933  0.31418084  0.51296043    -0.85600
C248        C  0.24959835  0.31053049  0.47920420     1.02100
O249        O  0.22239254  0.29088066  0.46406492    -0.78400
O250        O  0.20184305  0.22918613  0.49295375    -0.78600
C251        C  0.18782099  0.20334629  0.51187459     1.02100
O252        O  0.12634206  0.23006923  0.04762996    -0.85900
O253        O  0.17046743  0.27329703  0.09927578    -0.82900
C254        C  0.16969994  0.29984852  0.09375891     0.97600
O255        O  0.17806228  0.31360503  0.06319290    -0.83000
O256        O  0.19911822  0.32671717  0.99139463    -0.85600
C257        C  0.17305721  0.30982459  0.47372574     1.02100
O258        O  0.15667901  0.27918138  0.47738151    -0.78400
O259        O  0.13482428  0.21686599  0.49786760    -0.78500
C260        C  0.11590668  0.21924430  0.01606196     1.02000
Cr261      Cr  0.17127741  0.24065353  0.06336483     1.93700
Cr262      Cr  0.21359308  0.31176492  0.03628134     1.93200
Cr263      Cr  0.17969943  0.25493305  0.48605639     1.39100
O264        O  0.18864945  0.26927302  0.02740894    -1.23600
O265        O  0.23081614  0.79748266  0.26883779    -0.85900
O266        O  0.23335485  0.84262799  0.21617949    -0.82900
C267        C  0.20637387  0.84315110  0.21954236     0.97600
O268        O  0.19988435  0.85134819  0.24967750    -0.83000
O269        O  0.20515290  0.87150896  0.32201510    -0.85600
C270        C  0.19507120  0.84617389  0.34230892     1.02100
O271        O  0.20879829  0.82908108  0.34109861    -0.78400
O272        O  0.24868963  0.80509270  0.32484533    -0.78600
C273        C  0.23005858  0.78586632  0.30017245     1.02100
O274        O  0.30083533  0.84032624  0.28519853    -0.85900
O275        O  0.30037926  0.88737169  0.24072069    -0.82900
C276        C  0.29480214  0.91040341  0.23253844     0.97600
O277        O  0.26572849  0.90597361  0.23512219    -0.83000
O278        O  0.27179445  0.92225204  0.30518774    -0.85600
C279        C  0.27334291  0.92176715  0.33903472     1.02100
O280        O  0.26355002  0.89442290  0.35537208    -0.78400
O281        O  0.30439456  0.87144095  0.33109875    -0.78500
C282        C  0.31666569  0.85764824  0.31264211     1.02000
Cr283      Cr  0.26539230  0.84277259  0.25467206     1.93700
Cr284      Cr  0.23635654  0.88565692  0.27865532     1.93200
Cr285      Cr  0.25632643  0.85078160  0.33498958     1.39100
O286        O  0.25254466  0.85967899  0.28937878    -1.23600
O287        O  0.01770231  0.82448866  0.03559906    -0.85900
O288        O  0.02062224  0.77820647  0.07940260    -0.82900
C289        C  0.02716051  0.75557520  0.08634254     0.97600
O290        O  0.05678505  0.76140017  0.08407505    -0.83000
O291        O  0.05070981  0.74600321  0.51452276    -0.85600
C292        C  0.05084345  0.74624062  0.48071634     1.02100
O293        O  0.05651162  0.77233341  0.46374388    -0.78400
O294        O  0.01241652  0.79179775  0.48991882    -0.78600
C295        C  0.99936906  0.80509826  0.50812426     1.02100
O296        O  0.08761770  0.86904752  0.05063557    -0.85900
O297        O  0.08758506  0.82466533  0.10313383    -0.82900
C298        C  0.11506089  0.82516064  0.09931265     0.97600
O299        O  0.12184066  0.81788955  0.06881852    -0.83000
O300        O  0.11619385  0.79892613  0.99595169    -0.85600
C301        C  0.12318161  0.82446668  0.47488142     1.02100
O302        O  0.10758300  0.83964573  0.47626829    -0.78400
O303        O  0.06563802  0.85986849  0.49458898    -0.78500
C304        C  0.08714254  0.87994226  0.01919470     1.02000
Cr305      Cr  0.05435620  0.82342110  0.06542233     1.93700
Cr306      Cr  0.08558233  0.78298546  0.04026311     1.93200
Cr307      Cr  0.06042778  0.81509307  0.48413890     1.39100
O308        O  0.06773874  0.80750858  0.03026341    -1.23600
O309        O  0.52768214  0.10497248  0.09740127    -0.85900
O310        O  0.48273394  0.06062165  0.04640373    -0.82900
C311        C  0.48310697  0.03377119  0.05119025     0.97600
O312        O  0.47566868  0.02025901  0.08208023    -0.83000
O313        O  0.45612730  0.00786253  0.15503568    -0.85600
C314        C  0.48055567  0.02407023  0.17613464     1.02100
O315        O  0.49706768  0.05487577  0.17332012    -0.78400
O316        O  0.51910970  0.11756801  0.15166280    -0.78600
C317        C  0.53858010  0.11612208  0.12885431     1.02100
O318        O  0.48373876  0.13218016  0.11028227    -0.85900
O319        O  0.43668431  0.08196274  0.06814746    -0.82900
C320        C  0.41458564  0.05282325  0.06059724     0.97600
O321        O  0.41957928  0.02877350  0.06577544    -0.83000
O322        O  0.40339569  0.02058950  0.13660975    -0.85600
C323        C  0.40445515  0.02434563  0.17033776     1.02100
O324        O  0.43167638  0.04370332  0.18567246    -0.78400
O325        O  0.45243643  0.10569170  0.15650061    -0.78500
C326        C  0.46576240  0.13117627  0.13684143     1.02000
Cr327      Cr  0.48196782  0.09330584  0.08262920     1.93700
Cr328      Cr  0.44077116  0.02232069  0.11039001     1.93200
Cr329      Cr  0.47435498  0.07958107  0.16371263     1.39100
O330        O  0.46568357  0.06489039  0.11888179    -1.23600
O331        O  0.50261506  0.86219653  0.36898194    -0.85900
O332        O  0.54792168  0.91107831  0.41358875    -0.82900
C333        C  0.56918310  0.94010071  0.42250162     0.97600
O334        O  0.56321612  0.96366431  0.41895126    -0.83000
O335        O  0.58141766  0.97505130  0.34867039    -0.85600
C336        C  0.58098793  0.97205707  0.31483689     1.02100
O337        O  0.55388029  0.95353610  0.29869376    -0.78400
O338        O  0.53378190  0.89146776  0.32395805    -0.78600
C339        C  0.52124843  0.86529674  0.34207610     1.02100
O340        O  0.45699224  0.88725305  0.38461993    -0.85900
O341        O  0.50055087  0.93033643  0.43702661    -0.82900
C342        C  0.49934709  0.95686654  0.43281275     0.97600
O343        O  0.50659719  0.97087081  0.40216693    -0.83000
O344        O  0.52841541  0.98720976  0.33002414    -0.85600
C345        C  0.50417985  0.97127430  0.30860102     1.02100
O346        O  0.48741281  0.94058118  0.31158720    -0.78400
O347        O  0.46627418  0.87742652  0.32941445    -0.78500
C348        C  0.44644740  0.87754419  0.35275952     1.02000
Cr349      Cr  0.50272463  0.89930925  0.39912646     1.93700
Cr350      Cr  0.54293791  0.97140166  0.37443482     1.93200
Cr351      Cr  0.51089513  0.91645383  0.31885958     1.39100
O352        O  0.51895895  0.92916823  0.36420237    -1.23600
O353        O  0.46086123  0.30990495  0.20355260    -0.85900
O354        O  0.41020489  0.30541642  0.24671262    -0.82900
C355        C  0.38081402  0.29753253  0.25456434     0.97600
O356        O  0.35766791  0.26793685  0.25095798    -0.83000
O357        O  0.34750739  0.27653852  0.18139877    -0.85600
C358        C  0.35123378  0.28083989  0.14784306     1.02100
O359        O  0.37072908  0.27369463  0.13121484    -0.78400
O360        O  0.43272183  0.31433313  0.15886912    -0.78600
C361        C  0.45888136  0.32663033  0.17717135     1.02100
O362        O  0.43505418  0.23944032  0.21697521    -0.85900
O363        O  0.39058229  0.23829264  0.26865063    -0.82900
C364        C  0.36432107  0.21065699  0.26358422     0.97600
O365        O  0.35098556  0.20457151  0.23265104    -0.83000
O366        O  0.33635795  0.21224008  0.16055436    -0.85600
C367        C  0.35303502  0.20461846  0.13932076     1.02100
O368        O  0.38381000  0.21985668  0.14090114    -0.78400
O369        O  0.44590434  0.25934077  0.16172404    -0.78500
C370        C  0.44462678  0.23860299  0.18506456     1.02000
Cr371      Cr  0.42259769  0.27246068  0.23203624     1.93700
Cr372      Cr  0.35099279  0.24118046  0.20579122     1.93200
Cr373      Cr  0.40753416  0.26668712  0.15119508     1.39100
O374        O  0.39356227  0.25985169  0.19630993    -1.23600
O375        O  0.21868224  0.09552134  0.43020318    -0.85900
O376        O  0.26263412  0.09384934  0.37916822    -0.82900
C377        C  0.28951182  0.12094383  0.38375083     0.97600
O378        O  0.30274396  0.12725230  0.41474498    -0.83000
O379        O  0.31583054  0.12007939  0.48772518    -0.85600
C380        C  0.29945523  0.12837968  0.50855846     1.02100
O381        O  0.26999640  0.11371821  0.00748438    -0.78400
O382        O  0.20642241  0.07546389  0.48526471    -0.78600
C383        C  0.20806864  0.09614986  0.46166775     1.02100
O384        O  0.19060676  0.02501098  0.44417023    -0.85900
O385        O  0.24048351  0.02665925  0.40255937    -0.82900
C386        C  0.26965471  0.03306891  0.39588510     0.97600
O387        O  0.29358231  0.06234746  0.39902860    -0.83000
O388        O  0.30236193  0.05481949  0.46894707    -0.85600
C389        C  0.30032308  0.05142307  0.00313620     1.02100
O390        O  0.28056235  0.05857235  0.01905707    -0.78400
O391        O  0.21769414  0.01908189  0.99092504    -0.78500
C392        C  0.19163196  0.00783745  0.47054751     1.02000
Cr393      Cr  0.22972984  0.06114029  0.41601005     1.93700
Cr394      Cr  0.30078147  0.09040242  0.44316267     1.93200
Cr395      Cr  0.24496153  0.06685631  0.99775035     1.39100
O396        O  0.25827071  0.07313103  0.45210243    -1.23600
C397        C  0.31264148  0.16363051  0.28987433    -0.20800
C398        C  0.34649165  0.18696044  0.29435552    -0.07400
C399        C  0.36119144  0.18800340  0.32843440     0.13500
C400        C  0.34173955  0.16671789  0.35675215    -0.20900
C401        C  0.30776509  0.14373836  0.35245095    -0.07400
C402        C  0.29325317  0.14213412  0.31806341     0.13500
C403        C  0.25724381  0.11830763  0.31066273    -0.24200
H404        H  0.30086751  0.16244364  0.26407736     0.14700
H405        H  0.35352402  0.16783458  0.38252096     0.14800
C406        C  0.39751022  0.21084941  0.33521567    -0.24200
H407        H  0.24980491  0.12164536  0.28297653     0.05000
H408        H  0.24161806  0.12224320  0.33050246     0.08200
H409        H  0.25235934  0.09252397  0.31256149     0.08200
H410        H  0.40325528  0.23693073  0.33402080     0.08200
H411        H  0.41230471  0.20652881  0.31459503     0.08200
H412        H  0.40517067  0.20676877  0.36245941     0.05000
C413        C  0.31254260  0.18388139  0.08950023    -0.20800
C414        C  0.33792324  0.18230184  0.10815319    -0.07400
C415        C  0.35256516  0.16487665  0.09250995     0.13500
C416        C  0.34188268  0.15025006  0.05832970    -0.20900
C417        C  0.31612793  0.15134805  0.03991604    -0.07400
C418        C  0.30127888  0.16854606  0.05573259     0.13500
C419        C  0.27390936  0.17145809  0.03715041    -0.24200
H420        H  0.30205034  0.19801624  0.10095195     0.14700
H421        H  0.35268623  0.13645664  0.04671290     0.14800
C422        C  0.37871684  0.16057492  0.11203499    -0.24200
H423        H  0.26752459  0.18805631  0.05221014     0.05000
H424        H  0.25095943  0.14715059  0.03607343     0.08200
H425        H  0.28162695  0.18152026  0.00926130     0.08200
H426        H  0.37005645  0.15070569  0.13981008     0.08200
H427        H  0.40217486  0.18441251  0.11360608     0.08200
H428        H  0.38427136  0.14298094  0.09769790     0.05000
C429        C  0.44005843  0.15496643  0.17682073    -0.20800
C430        C  0.46131602  0.15982139  0.14741703    -0.07400
C431        C  0.47784991  0.19152825  0.13081876     0.13500
C432        C  0.47283672  0.21704725  0.14434339    -0.20900
C433        C  0.45186433  0.21200834  0.17411705    -0.07400
C434        C  0.43496229  0.18015732  0.19018228     0.13500
C435        C  0.41002161  0.17156486  0.22034091    -0.24200
H436        H  0.42680125  0.13089284  0.18964093     0.14700
H437        H  0.48523958  0.24110554  0.13136810     0.14800
C438        C  0.50065772  0.19887300  0.09888856    -0.24200
H439        H  0.39800836  0.14506793  0.22810331     0.05000
H440        H  0.39018103  0.17655979  0.21133003     0.08200
H441        H  0.42232277  0.18611493  0.24503539     0.08200
H442        H  0.48687018  0.18239505  0.07588226     0.08200
H443        H  0.52163583  0.19522138  0.10670861     0.08200
H444        H  0.51113811  0.22476810  0.08930375     0.05000
C445        C  0.36414809  0.05640777  0.07003047    -0.20800
C446        C  0.38217204  0.04679621  0.04759850    -0.07400
C447        C  0.36893071  0.03192832  0.01390214     0.13500
C448        C  0.33952810  0.03013821  0.00185327    -0.20900
C449        C  0.32297922  0.04282478  0.02275803    -0.07400
C450        C  0.33410175  0.05360239  0.05857004     0.13500
C451        C  0.31499979  0.06255916  0.08470730    -0.24200
H452        H  0.37390096  0.06651235  0.09663873     0.14700
H453        H  0.32903791  0.02095092  0.47368323     0.14800
C454        C  0.38564175  0.02082027  0.48738095    -0.24200
H455        H  0.32693667  0.06918861  0.11187362     0.05000
H456        H  0.28973407  0.04113635  0.08825448     0.08200
H457        H  0.31333859  0.08401423  0.07454483     0.08200
H458        H  0.38837323  0.00087011  0.50053892     0.08200
H459        H  0.41049141  0.04198865  0.48114696     0.08200
H460        H  0.37228881  0.01117375  0.46129777     0.05000
C461        C  0.49369819  0.00407874  0.45638988    -0.20800
C462        C  0.49295837  0.97404925  0.46389089    -0.07400
C463        C  0.48909946  0.96350218  0.50070614     0.13500
C464        C  0.48888978  0.98634227  0.02773141    -0.20900
C465        C  0.48894983  0.01607023  0.02024044    -0.07400
C466        C  0.49101409  0.02365149  0.48377155     0.13500
C467        C  0.49286116  0.05564193  0.47252912    -0.24200
H468        H  0.49687778  0.01281727  0.42857840     0.14700
H469        H  0.48669018  0.97808808  0.05566304     0.14800
C470        C  0.48851187  0.93207775  0.51173123    -0.24200
H471        H  0.49690319  0.06019839  0.44283945     0.05000
H472        H  0.51384418  0.07664596  0.48655536     0.08200
H473        H  0.46949366  0.05694680  0.98001216     0.08200
H474        H  0.51235151  0.93361001  0.50460341     0.08200
H475        H  0.46784073  0.91068719  0.49782605     0.08200
H476        H  0.48949718  0.93187139  0.04100691     0.05000
C477        C  0.47140917  0.96546793  0.25321518    -0.20800
C478        C  0.49786950  0.98649086  0.27616490    -0.07400
C479        C  0.51965614  0.01915519  0.26446154     0.13500
C480        C  0.51432606  0.02959057  0.23061546    -0.20900
C481        C  0.48760555  0.00869874  0.20790367    -0.07400
C482        C  0.46618183  0.97583634  0.21930668     0.13500
C483        C  0.43778952  0.95120993  0.19631782    -0.24200
H484        H  0.45466991  0.94024857  0.26153513     0.14700
H485        H  0.53106199  0.05482659  0.22223944     0.14800
C486        C  0.54848532  0.04347051  0.28713663    -0.24200
H487        H  0.42477502  0.92634389  0.20913980     0.05000
H488        H  0.44718361  0.94862765  0.16953169     0.08200
H489        H  0.41925962  0.95924747  0.19247339     0.08200
H490        H  0.56641294  0.03467651  0.29111926     0.08200
H491        H  0.53947258  0.04669317  0.31387293     0.08200
H492        H  0.56205096  0.06815550  0.27397163     0.05000
C493        C  0.15805743  0.96944407  0.02029828    -0.20800
C494        C  0.16327118  0.97476532  0.48077300    -0.07400
C495        C  0.13037473  0.96187383  0.46803587     0.13500
C496        C  0.10532996  0.93095439  0.48109292    -0.20900
C497        C  0.11068004  0.91501674  0.00859805    -0.07400
C498        C  0.13276021  0.93903763  0.03349668     0.13500
C499        C  0.13041393  0.93315712  0.07399762    -0.24200
H500        H  0.17524314  0.98738650  0.03945555     0.14700
H501        H  0.08030287  0.92077896  0.47094823     0.14800
C502        C  0.12119394  0.98052192  0.44133600    -0.24200
H503        H  0.14820499  0.95560054  0.08913072     0.05000
H504        H  0.13625463  0.91343999  0.08083997     0.08200
H505        H  0.10519460  0.92616946  0.08361282     0.08200
H506        H  0.13478229  0.98411469  0.41545369     0.08200
H507        H  0.12728908  0.00486487  0.45285565     0.08200
H508        H  0.09433766  0.96700029  0.43503236     0.05000
C509        C  0.39200993  0.87193801  0.36875881    -0.20800
C510        C  0.41186697  0.86854069  0.34237097    -0.07400
C511        C  0.39930790  0.86007122  0.30633493     0.13500
C512        C  0.36805855  0.85608927  0.29792460    -0.20900
C513        C  0.34895272  0.86089848  0.32396708    -0.07400
C514        C  0.36109239  0.86855579  0.36019199     0.13500
C515        C  0.34185965  0.87307087  0.39045501    -0.24200
H516        H  0.40114416  0.87833545  0.39632002     0.14700
H517        H  0.35886741  0.85009063  0.27031939     0.14800
C518        C  0.41851262  0.85566548  0.27604108    -0.24200
H519        H  0.35439570  0.87695092  0.41715953     0.05000
H520        H  0.31705401  0.85073405  0.39289773     0.08200
H521        H  0.33937257  0.89515753  0.38509607     0.08200
H522        H  0.42446430  0.83612319  0.28345969     0.08200
H523        H  0.44154131  0.87929922  0.27057550     0.08200
H524        H  0.40425958  0.84810015  0.25024986     0.05000
C525        C  0.31646742  0.96049572  0.19356064    -0.20800
C526        C  0.32238258  0.94261528  0.22034768    -0.07400
C527        C  0.35443045  0.95630329  0.23581639     0.13500
C528        C  0.38018905  0.98583738  0.22166426    -0.20900
C529        C  0.37508388  0.00138076  0.19171201    -0.07400
C530        C  0.34251107  0.98952577  0.17867596     0.13500
C531        C  0.33508199  0.00712052  0.14888403    -0.24200
H532        H  0.29167010  0.95080308  0.18287484     0.14700
H533        H  0.40504458  0.99524211  0.23208029     0.14800
C534        C  0.36196404  0.93995516  0.26699298    -0.24200
H535        H  0.30806195  0.99618955  0.14450042     0.05000
H536        H  0.34591963  0.00524670  0.12285366     0.08200
H537        H  0.34527521  0.03348248  0.15621808     0.08200
H538        H  0.35960068  0.91620096  0.25805392     0.08200
H539        H  0.34476379  0.93551271  0.28989463     0.08200
H540        H  0.38759189  0.95550596  0.27723860     0.05000
C541        C  0.29608671  0.01048972  0.35542981    -0.20800
C542        C  0.27578072  0.00613344  0.38526750    -0.07400
C543        C  0.26213940  0.97622209  0.40522316     0.13500
C544        C  0.26477288  0.94962468  0.39150772    -0.20900
C545        C  0.28123188  0.95249536  0.35868297    -0.07400
C546        C  0.29928117  0.98410816  0.34196059     0.13500
C547        C  0.32199659  0.99043393  0.31003640    -0.24200
H548        H  0.30831986  0.03419550  0.34165366     0.14700
H549        H  0.25209493  0.92596565  0.40530114     0.14800
C550        C  0.24528010  0.97237958  0.44126240    -0.24200
H551        H  0.33666511  0.01717992  0.30344421     0.05000
H552        H  0.30781602  0.97787874  0.28527499     0.08200
H553        H  0.33967547  0.98177782  0.31666432     0.08200
H554        H  0.22248884  0.97391020  0.43759932     0.08200
H555        H  0.26219287  0.99199181  0.46009947     0.08200
H556        H  0.23848350  0.94836797  0.45436324     0.05000
C557        C  0.15085419  0.83055295  0.19546290    -0.20800
C558        C  0.18321794  0.83703710  0.18799050    -0.07400
C559        C  0.19313435  0.84066012  0.15101335     0.13500
C560        C  0.17071045  0.83752953  0.12325669    -0.20900
C561        C  0.13833713  0.83112817  0.13075882    -0.07400
C562        C  0.12847234  0.82751134  0.16775417     0.13500
C563        C  0.09417818  0.81971755  0.17863110    -0.24200
H564        H  0.14284482  0.82784806  0.22351315     0.14700
H565        H  0.17871637  0.84019321  0.09521396     0.14800
C566        C  0.22754961  0.84871309  0.14028779    -0.24200
H567        H  0.09062803  0.81718287  0.20854786     0.05000
H568        H  0.07555359  0.79600435  0.16624329     0.08200
H569        H  0.08975443  0.83993634  0.16968702     0.08200
H570        H  0.23210533  0.82856509  0.14917221     0.08200
H571        H  0.24601880  0.87239646  0.15287158     0.08200
H572        H  0.23122165  0.85141947  0.11039116     0.05000
C573        C  0.13908814  0.80371679  0.42201438    -0.20800
C574        C  0.14445311  0.83101414  0.44284762    -0.07400
C575        C  0.16295306  0.86315572  0.42771589     0.13500
C576        C  0.17696355  0.86710878  0.39314009    -0.20900
C577        C  0.17243892  0.83984468  0.37290559    -0.07400
C578        C  0.15239737  0.80760928  0.38708793     0.13500
C579        C  0.14386254  0.77715446  0.36508414    -0.24200
H580        H  0.12284383  0.77902619  0.43225851     0.14700
H581        H  0.19257604  0.89176486  0.38239816     0.14800
C582        C  0.16832075  0.89354943  0.44771543    -0.24200
H583        H  0.12538436  0.75424246  0.37914867     0.05000
H584        H  0.16605444  0.77481959  0.36053099     0.08200
H585        H  0.13323398  0.77849070  0.33853343     0.08200
H586        H  0.18037795  0.89527132  0.47428037     0.08200
H587        H  0.14461288  0.89315939  0.45177590     0.08200
H588        H  0.18408172  0.91623045  0.43186897     0.05000
C589        C  0.20331054  0.17562618  0.46460950    -0.20800
C590        C  0.19074321  0.17429036  0.49976408    -0.07400
C591        C  0.17824171  0.14372881  0.01797111     0.13500
C592        C  0.18576205  0.12000372  0.50702874    -0.20900
C593        C  0.19943311  0.12193095  0.47227900    -0.07400
C594        C  0.20792657  0.15027687  0.45066215     0.13500
C595        C  0.22271389  0.15492600  0.41314277    -0.24200
H596        H  0.21002917  0.19705849  0.44762048     0.14700
H597        H  0.17360666  0.09542234  0.01974869     0.14800
C598        C  0.15971057  0.13821528  0.05314547    -0.24200
H599        H  0.22737581  0.17846191  0.40036381     0.05000
H600        H  0.20547542  0.13456870  0.39510889     0.08200
H601        H  0.24684435  0.15562495  0.41466553     0.01000
H602        H  0.13698629  0.13974882  0.04841910     0.08200
H603        H  0.17573624  0.15705931  0.07333639     0.08200
H604        H  0.15203979  0.11349847  0.06494734     0.05000
C605        C  0.31566106  0.27291706  0.09488847    -0.20800
C606        C  0.32834671  0.28882166  0.12808519    -0.07400
C607        C  0.31408381  0.30635527  0.14453788     0.13500
C608        C  0.28553244  0.30446818  0.12930891    -0.20900
C609        C  0.27075982  0.28518031  0.09853385    -0.07400
C610        C  0.28698725  0.27074854  0.07997961     0.13500
C611        C  0.27421490  0.25296995  0.04438553    -0.24200
H612        H  0.32678067  0.26003413  0.08179876     0.14700
H613        H  0.27378682  0.31671110  0.14247583     0.14800
C614        C  0.32863474  0.32708443  0.17804174    -0.24200
H615        H  0.29135771  0.24550397  0.03242863     0.05000
H616        H  0.27157478  0.26942323  0.02450379     0.08200
H617        H  0.24999046  0.23032068  0.04847596     0.08200
H618        H  0.35517375  0.34493825  0.17325095     0.08200
H619        H  0.32571743  0.31129981  0.20189424     0.08200
H620        H  0.31621300  0.34143824  0.18485214     0.05000
C621        C  0.14999140  0.35749063  0.14953809    -0.20800
C622        C  0.15500001  0.35001208  0.18525383    -0.07400
C623        C  0.16415736  0.32542500  0.19035777     0.13500
C624        C  0.16767777  0.30915580  0.16003712    -0.20900
C625        C  0.16270953  0.31659797  0.12435086    -0.07400
C626        C  0.15378777  0.34136982  0.11914886     0.13500
C627        C  0.14757498  0.35079895  0.08191037    -0.24200
H628        H  0.14250859  0.37583710  0.14528524     0.14700
H629        H  0.17509101  0.29076068  0.16434561     0.14800
C630        C  0.17109025  0.31642498  0.22748570    -0.24200
H631        H  0.13875397  0.36893078  0.08334664     0.05000
H632        H  0.12834700  0.32859804  0.06770832     0.08200
H633        H  0.17075250  0.36241024  0.06579071     0.08200
H634        H  0.14807574  0.30435818  0.24386777     0.08200
H635        H  0.19015321  0.33893117  0.24149858     0.08200
H636        H  0.18049045  0.29876729  0.22588580     0.05000
C637        C  0.18193466  0.36239275  0.39087921    -0.20800
C638        C  0.15274227  0.34128626  0.37159812    -0.07400
C639        C  0.13008990  0.31045136  0.38703787     0.13500
C640        C  0.13645252  0.30256435  0.42173899    -0.20900
C641        C  0.16547112  0.32381917  0.44124445    -0.07400
C642        C  0.18849343  0.35435282  0.42544346     0.13500
C643        C  0.22006429  0.37871429  0.44429962    -0.24200
H644        H  0.19967322  0.38597147  0.37913098     0.14700
H645        H  0.11871736  0.27889309  0.43332971     0.14800
C646        C  0.09932376  0.28540684  0.36745798    -0.24200
H647        H  0.23456253  0.40153481  0.42793830     0.05000
H648        H  0.23608288  0.36773334  0.44893050     0.08200
H649        H  0.21415290  0.38604525  0.47067529     0.08200
H650        H  0.10624925  0.27877950  0.34125314     0.08200
H651        H  0.08258875  0.29542628  0.36235253     0.08200
H652        H  0.08518748  0.26230782  0.38348320     0.05000
C653        C  0.06280051  0.18311086  0.98350221    -0.20800
C654        C  0.08227351  0.21139866  0.00449734    -0.07400
C655        C  0.05688250  0.20694643  0.53471898     0.13500
C656        C  0.02613301  0.20074992  0.52132581    -0.20900
C657        C  0.01785828  0.19476603  0.48427204    -0.07400
C658        C  0.04079493  0.19372155  0.46006389     0.13500
C659        C  0.01076871  0.14409472  0.95013143    -0.24200
H660        H  0.07199720  0.16633498  0.97785453     0.14700
H661        H  0.00831119  0.20079170  0.54017848     0.14800
C662        C  0.06336698  0.21299221  0.57493222    -0.24200
H663        H  0.02336862  0.12926740  0.94814664     0.05000
H664        H  0.02739103  0.20468399  0.40775894     0.08200
H665        H  0.98693994  0.12891802  0.96453067     0.08200
H666        H  0.08351472  0.23866500  0.57976961     0.08200
H667        H  0.09479110  0.25998582  0.06023057     0.08200
H668        H  0.04127307  0.20984026  0.58983307     0.05000
C669        C  0.97847301  0.28808274  0.35406718    -0.20800
C670        C  0.98433105  0.27206847  0.38295383    -0.07400
C671        C  0.01554740  0.28768641  0.40044965     0.13500
C672        C  0.04090101  0.31743710  0.38647148    -0.20900
C673        C  0.03646723  0.33081131  0.35425979    -0.07400
C674        C  0.00434757  0.31711634  0.33903337     0.13500
C675        C  0.99718196  0.33267832  0.30684673    -0.24200
H676        H  0.95409865  0.27679035  0.34184455     0.14700
H677        H  0.06524247  0.32841445  0.39873794     0.14800
C678        C  0.02276022  0.27286054  0.43330140    -0.24200
H679        H  0.97025995  0.32057000  0.30110466     0.05000
H680        H  0.00921584  0.33029039  0.28200554     0.08200
H681        H  0.00611918  0.35915583  0.31247083     0.08200
H682        H  0.02281619  0.25003246  0.42550583     0.08200
H683        H  0.00380111  0.26697932  0.45457941     0.08200
H684        H  0.04737292  0.28989591  0.44520577     0.05000
C685        C  0.61720115  0.14050878  0.18464044    -0.20800
C686        C  0.63522191  0.13225468  0.16060519    -0.07400
C687        C  0.62253371  0.12172764  0.12487499     0.13500
C688        C  0.59199236  0.11863288  0.11514076    -0.20900
C689        C  0.57307181  0.12523523  0.13975183    -0.07400
C690        C  0.58637519  0.13700986  0.17499513     0.13500
C691        C  0.56845639  0.14565449  0.20313852    -0.24200
H692        H  0.62691954  0.14898035  0.21170280     0.14700
H693        H  0.58232595  0.10985269  0.08816471     0.14800
C694        C  0.64066560  0.11368450  0.09626307    -0.24200
H695        H  0.58344268  0.15595331  0.22816037     0.05000
H696        H  0.54523768  0.12320276  0.21133717     0.08200
H697        H  0.56299296  0.16460364  0.19209084     0.08200
H698        H  0.66574540  0.13520861  0.09193037     0.08200
H699        H  0.64238948  0.09170350  0.10460249     0.08200
H700        H  0.62773039  0.10774392  0.06963866     0.05000
C701        C  0.67002552  0.03499412  0.29259227    -0.20800
C702        C  0.66482721  0.05173703  0.26392745    -0.07400
C703        C  0.63313423  0.03762665  0.24755373     0.13500
C704        C  0.60681945  0.00914816  0.26269543    -0.20900
C705        C  0.61107778  0.99472894  0.29415646    -0.07400
C706        C  0.64343592  0.00666691  0.30810603     0.13500
C707        C  0.65015522  0.98967582  0.33911028    -0.24200
H708        H  0.69459436  0.04500577  0.30402768     0.14700
H709        H  0.58224206  0.99960670  0.25141844     0.14800
C710        C  0.62662404  0.05237580  0.21412127    -0.24200
H711        H  0.67707026  0.00051892  0.34419524     0.05000
H712        H  0.63993616  0.96316111  0.33253590     0.08200
H713        H  0.63891257  0.99221783  0.36451729     0.08200
H714        H  0.64422724  0.05518728  0.19224971     0.08200
H715        H  0.62911609  0.07669794  0.22057425     0.08200
H716        H  0.60118280  0.03651514  0.20352564     0.05000
C717        C  0.81635593  0.16088275  0.35993470    -0.20800
C718        C  0.84712967  0.16304734  0.35288275    -0.07400
C719        C  0.85533570  0.16159323  0.31601542     0.13500
C720        C  0.83331308  0.15884851  0.28800761    -0.20900
C721        C  0.80274687  0.15716912  0.29499935    -0.07400
C722        C  0.79418757  0.15780754  0.33192963     0.13500
C723        C  0.76157158  0.15476750  0.34257647    -0.24200
H724        H  0.80946266  0.16174954  0.38782838     0.14700
H725        H  0.84019573  0.15790826  0.26011552     0.14800
C726        C  0.88733171  0.16318242  0.30544424    -0.24200
H727        H  0.75899922  0.15543500  0.37251624     0.05000
H728        H  0.74091309  0.13088328  0.33281781     0.08200
H729        H  0.75948216  0.17560310  0.33084562     0.08200
H730        H  0.88885124  0.14238495  0.31821720     0.08200
H731        H  0.90861147  0.18710569  0.31410817     0.08200
H732        H  0.88934417  0.16123972  0.27558706     0.05000
C733        C  0.84078209  0.19396751  0.05496175    -0.20800
C734        C  0.84097086  0.16750633  0.03742863    -0.07400
C735        C  0.82501959  0.13584689  0.05423549     0.13500
C736        C  0.81075978  0.13203394  0.08867803    -0.20900
C737        C  0.81077597  0.15850557  0.10644591    -0.07400
C738        C  0.82574713  0.18996506  0.08899138     0.13500
C739        C  0.82654279  0.21983835  0.10583315    -0.24200
H740        H  0.85336852  0.21820805  0.04249324     0.14700
H741        H  0.79813957  0.10768814  0.10113528     0.14800
C742        C  0.82185169  0.10559309  0.03573073    -0.24200
H743        H  0.84165524  0.24249550  0.08958285     0.05000
H744        H  0.83724435  0.22396431  0.13358305     0.08200
H745        H  0.80138304  0.21671356  0.10680369     0.08200
H746        H  0.84247860  0.10419891  0.53376495     0.08200
H747        H  0.80803376  0.10225393  0.50846361     0.08200
H748        H  0.80500148  0.08257205  0.05076370     0.05000
C749        C  0.94253837  0.67796725  0.08941679    -0.20800
C750        C  0.94573657  0.66197544  0.12012772    -0.07400
C751        C  0.97754052  0.67390605  0.13573119     0.13500
C752        C  0.00421460  0.70384574  0.12324879    -0.20900
C753        C  0.99978583  0.72212587  0.09575882    -0.07400
C754        C  0.96914583  0.70783073  0.07695211     0.13500
C755        C  0.96422975  0.72373578  0.04357885    -0.24200
H756        H  0.91848943  0.66848058  0.07677318     0.14700
H757        H  0.02816490  0.71381837  0.13625846     0.14800
C758        C  0.98346365  0.65542391  0.16579023    -0.24200
H759        H  0.93986996  0.70764256  0.03063788     0.05000
H760        H  0.98356693  0.72838078  0.02315985     0.08200
H761        H  0.96531264  0.74726914  0.05086976     0.08200
H762        H  0.97407581  0.62938934  0.15752957     0.08200
H763        H  0.97100328  0.65615374  0.19106674     0.08200
H764        H  0.01019969  0.66648441  0.17209570     0.05000
C765        C  0.92378755  0.81418256  0.99618021    -0.20800
C766        C  0.90502755  0.78879068  0.46653915    -0.07400
C767        C  0.91975785  0.77057272  0.45364272     0.13500
C768        C  0.94987560  0.77630055  0.46844955    -0.20900
C769        C  0.96631413  0.79975312  0.49601956    -0.07400
C770        C  0.95409836  0.81958695  0.01070324     0.13500
C771        C  0.96899098  0.84311405  0.04207680    -0.24200
H772        H  0.91146713  0.82614930  0.00865722     0.14700
H773        H  0.96055843  0.76191324  0.45827693     0.14800
C774        C  0.90334150  0.74382265  0.42542508    -0.24200
H775        H  0.95354070  0.85404757  0.05011281     0.05000
H776        H  0.99371721  0.86374919  0.03431315     0.08200
H777        H  0.97120943  0.82986927  0.06607887     0.08200
H778        H  0.90130570  0.75470930  0.39938684     0.08200
H779        H  0.87841151  0.72486136  0.43495753     0.08200
H780        H  0.91766412  0.73110544  0.41996448     0.05000
C781        C  0.84382599  0.67837940  0.28692952    -0.20800
C782        C  0.82663222  0.64350856  0.28727562    -0.07400
C783        C  0.80627850  0.62724091  0.31771376     0.13500
C784        C  0.80463271  0.64606524  0.34680016    -0.20900
C785        C  0.82164836  0.68093257  0.34629807    -0.07400
C786        C  0.84158787  0.69716113  0.31566778     0.13500
C787        C  0.86157256  0.73428395  0.31343661    -0.24200
H788        H  0.85983153  0.69125187  0.26412835     0.14700
H789        H  0.78871265  0.63313183  0.36965060     0.14800
C790        C  0.78463147  0.59024603  0.32013224    -0.24200
H791        H  0.87736745  0.74272866  0.28875659     0.05000
H792        H  0.87800047  0.74408715  0.33747886     0.08200
H793        H  0.84491685  0.74487405  0.31223179     0.08200
H794        H  0.78419153  0.57722638  0.29494289     0.08200
H795        H  0.75870463  0.58402093  0.32537262     0.08200
H796        H  0.79308638  0.58062567  0.34292780     0.05000
C797        C  0.79628981  0.64974664  0.04963577    -0.20800
C798        C  0.82287848  0.67780757  0.03414518    -0.07400
C799        C  0.85377142  0.69365636  0.05260713     0.13500
C800        C  0.85691076  0.68088320  0.08588179    -0.20900
C801        C  0.83033655  0.65276454  0.10130309    -0.07400
C802        C  0.79947910  0.63695192  0.08286747     0.13500
C803        C  0.76953672  0.60670516  0.09776764    -0.24200
H804        H  0.77247305  0.63817611  0.03611891     0.14700
H805        H  0.88071878  0.69243721  0.09942276     0.14800
C806        C  0.88388791  0.72377353  0.03761242    -0.24200
H807        H  0.74733468  0.59953802  0.08080386     0.05000
H808        H  0.76416304  0.61143103  0.12580257     0.08200
H809        H  0.77353465  0.58522135  0.09750084     0.08200
H810        H  0.87852925  0.74368453  0.53431401     0.08200
H811        H  0.88687362  0.71543470  0.50844848     0.08200
H812        H  0.90613867  0.73069430  0.05443737     0.05000
C813        C  0.16158789  0.69541169  0.29370957    -0.20800
C814        C  0.15431465  0.68696975  0.33059195    -0.07400
C815        C  0.17479809  0.70974384  0.35718868     0.13500
C816        C  0.20046692  0.74101672  0.34620537    -0.20900
C817        C  0.20628574  0.75043846  0.30924615    -0.07400
C818        C  0.18724975  0.72651898  0.28262685     0.13500
C819        C  0.19350109  0.73315068  0.24244267    -0.24200
H820        H  0.14659010  0.67757516  0.27320041     0.14700
H821        H  0.21508564  0.75876148  0.36692815     0.14800
C822        C  0.16879697  0.70196482  0.39716007    -0.24200
H823        H  0.17797053  0.71071565  0.22604371     0.05000
H824        H  0.21977014  0.74128910  0.23627721     0.08200
H825        H  0.18742601  0.75228215  0.23365022     0.08200
H826        H  0.17207454  0.68056799  0.40390728     0.08200
H827        H  0.14333065  0.69615971  0.40434851     0.08200
H828        H  0.18634876  0.72307856  0.41417589     0.05000
C829        C  0.02242545  0.69709094  0.44018531    -0.20800
C830        C  0.04920380  0.71725456  0.46269008    -0.07400
C831        C  0.07233797  0.70702211  0.47203305     0.13500
C832        C  0.06933981  0.67839653  0.45673349    -0.20900
C833        C  0.04328953  0.65857201  0.43344198    -0.07400
C834        C  0.01863863  0.66726601  0.42622180     0.13500
C835        C  0.98840287  0.64543458  0.40414010    -0.24200
H836        H  0.00391798  0.70412268  0.43457292     0.14700
H837        H  0.08780093  0.67142252  0.46298987     0.14800
C838        C  0.10085419  0.72607123  0.49778242    -0.24200
H839        H  0.97212627  0.65633851  0.40067294     0.05000
H840        H  0.97387271  0.62114755  0.41785944     0.08200
H841        H  0.99583864  0.64176057  0.37692426     0.08200
H842        H  0.09191213  0.72958188  0.02491147     0.08200
H843        H  0.11797128  0.75057634  0.48621654     0.08200
H844        H  0.11555187  0.71356561  0.50229360     0.05000
C845        C  0.14251037  0.51865201  0.30378888    -0.20800
C846        C  0.11789187  0.48597027  0.31114183    -0.07400
C847        C  0.08904227  0.48019710  0.33027353     0.13500
C848        C  0.08656325  0.50711781  0.34302911    -0.20900
C849        C  0.11147854  0.53967196  0.33645173    -0.07400
C850        C  0.13952703  0.54559121  0.31591949     0.13500
C851        C  0.16679822  0.58017050  0.30766327    -0.24200
H852        H  0.16455797  0.52319033  0.28919138     0.14700
H853        H  0.06445072  0.50272606  0.35742986     0.14800
C854        C  0.06008927  0.44593051  0.33642552    -0.24200
H855        H  0.18769159  0.58020964  0.29315555     0.05000
H856        H  0.17646856  0.59410908  0.33336946     0.08200
H857        H  0.15737620  0.59301325  0.29003947     0.08200
H858        H  0.06684021  0.43188952  0.35565177     0.08200
H859        H  0.05201148  0.43268925  0.31016724     0.08200
H860        H  0.03855853  0.44662011  0.34832945     0.05000
C861        C  0.98569981  0.64174831  0.29574661    -0.20800
C862        C  0.99745784  0.62239364  0.27928683    -0.07400
C863        C  0.98128047  0.60404688  0.24793688     0.13500
C864        C  0.95060732  0.60052399  0.23840858    -0.20900
C865        C  0.93680830  0.61654440  0.25787496    -0.07400
C866        C  0.95548516  0.63907544  0.28544413     0.13500
C867        C  0.94287412  0.65865279  0.30558669    -0.24200
H868        H  0.99926163  0.65751376  0.31829239     0.14700
H869        H  0.93712351  0.58497709  0.21565974     0.14800
C870        C  0.99559972  0.58765233  0.22480064    -0.24200
H871        H  0.96006312  0.67377721  0.32756626     0.05000
H872        H  0.91854184  0.64165722  0.31812151     0.08200
H873        H  0.94024019  0.67571552  0.28657030     0.08200
H874        H  0.99815524  0.56891346  0.24063591     0.08200
H875        H  0.02026519  0.60656541  0.21459959     0.08200
H876        H  0.97974046  0.57503307  0.20092683     0.05000
C877        C  0.83560713  0.28763343  0.17392771    -0.20800
C878        C  0.82959130  0.30301700  0.14415241    -0.07400
C879        C  0.79760200  0.28714377  0.12842066     0.13500
C880        C  0.77295239  0.25679370  0.14296733    -0.20900
C881        C  0.77925249  0.24165874  0.17274640    -0.07400
C882        C  0.81128260  0.25741467  0.18820119     0.13500
C883        C  0.82094860  0.24200206  0.21856076    -0.24200
H884        H  0.85993333  0.29911316  0.18621272     0.14700
H885        H  0.74864972  0.24449852  0.13058290     0.14800
C886        C  0.78911159  0.30154627  0.09623432    -0.24200
H887        H  0.84745528  0.25724116  0.22599065     0.05000
H888        H  0.81682567  0.21743860  0.21000489     0.08200
H889        H  0.80629134  0.23944688  0.24331761     0.08200
H890        H  0.80534920  0.30413261  0.07294735     0.08200
H891        H  0.79222942  0.32602261  0.10341317     0.08200
H892        H  0.76310462  0.28555805  0.08737447     0.05000
C893        C  0.96259246  0.34087374  0.01683525    -0.20800
C894        C  0.94106615  0.33579839  0.04567911    -0.07400
C895        C  0.92630926  0.30528746  0.06462946     0.13500
C896        C  0.92993330  0.27924646  0.05119379    -0.20900
C897        C  0.94784537  0.28292948  0.01935224    -0.07400
C898        C  0.96621520  0.31477545  0.00330450     0.13500
C899        C  0.98726015  0.32063954  0.47377764    -0.24200
H900        H  0.97282670  0.36413817  0.50461843     0.14700
H901        H  0.91649129  0.25514522  0.06408535     0.14800
C902        C  0.90675568  0.29997787  0.09903795    -0.24200
H903        H  0.00093815  0.34723054  0.46629258     0.05000
H904        H  0.97390375  0.30692659  0.44912555     0.08200
H905        H  0.00579282  0.31354622  0.48196171     0.08200
H906        H  0.88392600  0.30091814  0.09314946     0.08200
H907        H  0.92197133  0.31922333  0.11920958     0.08200
H908        H  0.89931934  0.27558645  0.11159710     0.05000
C909        C  0.89005412  0.48184934  0.12773198    -0.20800
C910        C  0.86489830  0.44945961  0.13440664    -0.07400
C911        C  0.83706569  0.44397490  0.15501866     0.13500
C912        C  0.83473488  0.47127001  0.16757091    -0.20900
C913        C  0.85979832  0.50390090  0.16037566    -0.07400
C914        C  0.88822278  0.50907220  0.14068517     0.13500
C915        C  0.91745144  0.54304071  0.13393173    -0.24200
H916        H  0.91190016  0.48587286  0.11301067     0.14700
H917        H  0.81289304  0.46707224  0.18236945     0.14800
C918        C  0.80941777  0.40948351  0.16276993    -0.24200
H919        H  0.93857845  0.54185126  0.12162821     0.05000
H920        H  0.92615168  0.55650851  0.15997686     0.08200
H921        H  0.91069700  0.55713405  0.11478656     0.08200
H922        H  0.81862817  0.39598866  0.17962742     0.08200
H923        H  0.79943160  0.39607330  0.13682268     0.08200
H924        H  0.78884006  0.40963938  0.17776804     0.05000
C925        C  0.00368805  0.36030194  0.16364235    -0.20800
C926        C  0.98769913  0.37429328  0.18332107    -0.07400
C927        C  0.99864773  0.38590110  0.21900034     0.13500
C928        C  0.02762899  0.38724066  0.23176944    -0.20900
C929        C  0.04511311  0.37612574  0.21064107    -0.07400
C930        C  0.03222173  0.36096218  0.17700069     0.13500
C931        C  0.04958557  0.34739182  0.15429477    -0.24200
H932        H  0.99493648  0.35048169  0.13670539     0.14700
H933        H  0.03725079  0.39774738  0.25823229     0.14800
C934        C  0.98096338  0.39798501  0.24342909    -0.24200
H935        H  0.03666160  0.33731494  0.12808573     0.05000
H936        H  0.05043176  0.32712128  0.16923911     0.08200
H937        H  0.07520626  0.36723477  0.14823873     0.08200
H938        H  0.95504660  0.37797797  0.24754681     0.08200
H939        H  0.98117359  0.41987753  0.23142358     0.08200
H940        H  0.99283350  0.40528849  0.27058970     0.05000
C941        C  0.99225334  0.50622987  0.02049230    -0.20800
C942        C  0.96816940  0.47341360  0.01248477    -0.07400
C943        C  0.95527092  0.46693012  0.47629269     0.13500
C944        C  0.97392256  0.48945550  0.44832285    -0.20900
C945        C  0.00331108  0.51937332  0.45532108    -0.07400
C946        C  0.01358219  0.52683417  0.49217252     0.13500
C947        C  0.04373363  0.55875786  0.50306797    -0.24200
H948        H  0.99672117  0.51399048  0.04863737     0.14700
H949        H  0.96531694  0.48348790  0.42054059     0.14800
C950        C  0.93849462  0.42896368  0.96409570    -0.24200
H951        H  0.04752061  0.56060064  0.53296450     0.05000
H952        H  0.04092288  0.58004464  0.49436734     0.08200
H953        H  0.06618578  0.56043064  0.49061454     0.08200
H954        H  0.91314278  0.42273483  0.97230981     0.08200
H955        H  0.94512123  0.41143888  0.97688457     0.08200
H956        H  0.91924636  0.43459114  0.43625355     0.05000
C957        C  0.95730842  0.48645597  0.22221308    -0.20800
C958        C  0.97829642  0.47965568  0.20075195    -0.07400
C959        C  0.01036347  0.48924990  0.21375300     0.13500
C960        C  0.02028215  0.50520648  0.24737456    -0.20900
C961        C  0.99954941  0.51265078  0.26846140    -0.07400
C962        C  0.96715602  0.50223997  0.25592627     0.13500
C963        C  0.94265123  0.50765288  0.27732418    -0.24200
H964        H  0.93250735  0.47890876  0.21282193     0.14700
H965        H  0.04505748  0.51267745  0.25678960     0.14800
C966        C  0.03448363  0.48289049  0.19286368    -0.24200
H967        H  0.91811882  0.49642968  0.26380475     0.05000
H968        H  0.95144627  0.53440433  0.28014889     0.08200
H969        H  0.93900501  0.49610492  0.30460406     0.08200
H970        H  0.03935752  0.49512215  0.16586367     0.08200
H971        H  0.02452820  0.45598552  0.18938886     0.08200
H972        H  0.05857531  0.49278624  0.20712352     0.05000
C973        C  0.84133038  0.07291750  0.46241334    -0.20800
C974        C  0.87287462  0.08395579  0.47683497    -0.07400
C975        C  0.87710692  0.06477825  0.50399699     0.13500
C976        C  0.84978888  0.03439092  0.51477858    -0.20900
C977        C  0.81809435  0.02320926  0.50005055    -0.07400
C978        C  0.81385410  0.04359694  0.47413244     0.13500
C979        C  0.77930039  0.03711208  0.95614895    -0.24200
H980        H  0.83780443  0.08823984  0.44271232     0.14700
H981        H  0.85330216  0.01924322  0.53467654     0.14800
C982        C  0.91031472  0.07576220  0.52118611    -0.24200
H983        H  0.78063745  0.05755618  0.93931707     0.05000
H984        H  0.76232331  0.03316534  0.97916440     0.08200
H985        H  0.77043483  0.01385553  0.44127860     0.08200
H986        H  0.91827930  0.09872234  0.53695008     0.08200
H987        H  0.92886796  0.08022172  0.49980399     0.08200
H988        H  0.90950954  0.05685869  0.54023850     0.05000
C989        C  0.69186460  0.01347637  0.14515210    -0.20800
C990        C  0.70326631  0.04242572  0.12388989    -0.07400
C991        C  0.71121176  0.04155003  0.08692975     0.13500
C992        C  0.71188681  0.01362544  0.07400557    -0.20900
C993        C  0.70432987  0.98661193  0.09679590    -0.07400
C994        C  0.69275787  0.98577038  0.13217831     0.13500
C995        C  0.68366075  0.95675417  0.15704909    -0.24200
H996        H  0.68446714  0.01328512  0.17308771     0.14700
H997        H  0.71969386  0.01336612  0.04630161     0.14800
C998        C  0.72006221  0.06995812  0.06122162    -0.24200
H999        H  0.67583310  0.96050605  0.18427197     0.05000
H1000       H  0.70529969  0.95313437  0.16073850     0.08200
H1001       H  0.66291135  0.93407499  0.14512940     0.08200
H1002       H  0.74320001  0.09204162  0.07002548     0.08200
H1003       H  0.69963219  0.07569453  0.06033429     0.08200
H1004       H  0.72409570  0.06406135  0.03312492     0.05000
C1005       C  0.80707632  0.88232914  0.47485561    -0.20800
C1006       C  0.79166620  0.88228467  0.00531553    -0.07400
C1007       C  0.79030593  0.85764618  0.02905705     0.13500
C1008       C  0.77028637  0.81812202  0.50104428    -0.20900
C1009       C  0.79360631  0.82456845  0.47335985    -0.07400
C1010       C  0.81198115  0.85727050  0.45975053     0.13500
C1011       C  0.83666622  0.86610440  0.42946932    -0.24200
H1012       H  0.82092677  0.90725412  0.46420762     0.14700
H1013       H  0.75530089  0.79317430  0.51125204     0.14800
C1014       C  0.78266605  0.85660920  0.06903061    -0.24200
H1015       H  0.84848765  0.89268366  0.42211949     0.05000
H1016       H  0.82406386  0.85154564  0.40485942     0.08200
H1017       H  0.85652660  0.86094672  0.43795154     0.08200
H1018       H  0.72011688  0.83984960  0.53436537     0.08200
H1019       H  0.80049471  0.88039089  0.08192329     0.08200
H1020       H  0.78460651  0.83669945  0.08348165     0.05000
C1021       C  0.61954398  0.93710157  0.41176011    -0.20800
C1022       C  0.60183942  0.94668025  0.43470416    -0.07400
C1023       C  0.61567583  0.96217930  0.46794029     0.13500
C1024       C  0.64586272  0.96523175  0.47881155    -0.20900
C1025       C  0.66220095  0.95262733  0.45746041    -0.07400
C1026       C  0.65015707  0.94085420  0.42216162     0.13500
C1027       C  0.66885699  0.93186893  0.39545881    -0.24200
H1028       H  0.60912395  0.92634996  0.38555758     0.14700
H1029       H  0.65546409  0.97527440  0.50546575     0.14800
C1030       C  0.59754303  0.97312052  0.49315104    -0.24200
H1031       H  0.65592755  0.92410686  0.36888472     0.05000
H1032       H  0.67167333  0.91117422  0.40582772     0.08200
H1033       H  0.69366797  0.95363211  0.39061477     0.08200
H1034       H  0.57314964  0.95167450  0.50033399     0.08200
H1035       H  0.59382186  0.99237431  0.47976740     0.08200
H1036       H  0.62179977  0.99889891  0.00703450     0.05000
C1037       C  0.55360463  0.81627179  0.28987685    -0.20800
C1038       C  0.53322929  0.78421111  0.30294314    -0.07400
C1039       C  0.50897945  0.77874854  0.32944257     0.13500
C1040       C  0.50588332  0.80559148  0.34204097    -0.20900
C1041       C  0.52670573  0.83793791  0.32935995    -0.07400
C1042       C  0.55121966  0.84318863  0.30288975     0.13500
C1043       C  0.57601245  0.87700631  0.28854620    -0.24200
H1044       H  0.57270844  0.82058506  0.27029390     0.14700
H1045       H  0.48692976  0.80118959  0.36183240     0.14800
C1046       C  0.48577344  0.74466217  0.34398509    -0.24200
H1047       H  0.59469828  0.87619433  0.27054098     0.05000
H1048       H  0.58961284  0.89369418  0.31150011     0.08200
H1049       H  0.56334722  0.88739399  0.27208906     0.08200
H1050       H  0.49967961  0.73535307  0.35992967     0.08200
H1051       H  0.47273390  0.72760648  0.32111923     0.08200
H1052       H  0.46682034  0.74459187  0.36228976     0.05000
C1053       C  0.67138901  0.72782651  0.38278899    -0.20800
C1054       C  0.65452584  0.70694265  0.35372132    -0.07400
C1055       C  0.66516407  0.68531338  0.34039912     0.13500
C1056       C  0.69508151  0.68857004  0.35298573    -0.20900
C1057       C  0.71449059  0.71313525  0.37810356    -0.07400
C1058       C  0.70140577  0.73141805  0.39500229     0.13500
C1059       C  0.71886779  0.75488401  0.42585582    -0.24200
H1060       H  0.66272775  0.74369473  0.39377225     0.14700
H1061       H  0.70411861  0.67307086  0.34183446     0.14800
C1062       C  0.64521590  0.65892299  0.31297091    -0.24200
H1063       H  0.70313161  0.76380927  0.43842292     0.05000
H1064       H  0.74175095  0.77665728  0.41580831     0.08200
H1065       H  0.72512146  0.74223663  0.44740637     0.08200
H1066       H  0.64417676  0.67011963  0.28676796     0.08200
H1067       H  0.61984332  0.64289313  0.32362628     0.08200
H1068       H  0.65617553  0.64299059  0.30748091     0.05000
C1069       C  0.64357088  0.79628579  0.14937675    -0.20800
C1070       C  0.64212238  0.80936027  0.18328272    -0.07400
C1071       C  0.66014966  0.84415306  0.18774437     0.13500
C1072       C  0.67840660  0.86465225  0.15832825    -0.20900
C1073       C  0.67959509  0.85160442  0.12430821    -0.07400
C1074       C  0.66219428  0.81677720  0.12010867     0.13500
C1075       C  0.66422024  0.80089435  0.08533320    -0.24200
H1076       H  0.63073887  0.76970510  0.14603743     0.14700
H1077       H  0.69129486  0.89121972  0.16172661     0.14800
C1078       C  0.65948973  0.86001881  0.22311808    -0.24200
H1079       H  0.65132089  0.77355168  0.08770499     0.05000
H1080       H  0.69051249  0.80962786  0.07859414     0.08200
H1081       H  0.65243940  0.80707507  0.06274879     0.08200
H1082       H  0.67149928  0.85318528  0.24487804     0.08200
H1083       H  0.63352749  0.85186435  0.23087258     0.08200
H1084       H  0.67297435  0.88739487  0.22106290     0.05000
C1085       C  0.67701403  0.81690187  0.38431915    -0.20800
C1086       C  0.64940644  0.81589478  0.36796647    -0.07400
C1087       C  0.63410817  0.83209015  0.38495669     0.13500
C1088       C  0.64505261  0.84620706  0.41927937    -0.20900
C1089       C  0.67257658  0.84712119  0.43584783    -0.07400
C1090       C  0.68932502  0.83288926  0.41752939     0.13500
C1091       C  0.72000380  0.83393859  0.43251964    -0.24200
H1092       H  0.68867689  0.80446164  0.37141656     0.14700
H1093       H  0.63304416  0.85824448  0.43235549     0.14800
C1094       C  0.60729807  0.83605360  0.36654180    -0.24200
H1095       H  0.72818856  0.81989171  0.41534362     0.05000
H1096       H  0.71505150  0.82316940  0.46027473     0.08200
H1097       H  0.74101452  0.85961293  0.43284712     0.08200
H1098       H  0.58397192  0.81207863  0.36504846     0.08200
H1099       H  0.61545673  0.84634198  0.33880375     0.08200
H1100       H  0.60172350  0.85331457  0.38158445     0.05000
C1101       C  0.27735052  0.46999536  0.35159790    -0.20800
C1102       C  0.29814115  0.46864802  0.32507271    -0.07400
C1103       C  0.28795298  0.46449835  0.28812655     0.13500
C1104       C  0.25659312  0.45965707  0.27924401    -0.20900
C1105       C  0.23476286  0.45890435  0.30591636    -0.07400
C1106       C  0.24583532  0.46513603  0.34271025     0.13500
C1107       C  0.22478236  0.46613904  0.37322263    -0.24200
H1108       H  0.28539316  0.47379891  0.37969347     0.14700
H1109       H  0.24878833  0.45557550  0.25107272     0.14800
C1110       C  0.31000909  0.46564621  0.25745378    -0.24200
H1111       H  0.23791766  0.47197139  0.39971997     0.05000
H1112       H  0.20204540  0.44177561  0.37625820     0.08200
H1113       H  0.21822552  0.48558646  0.36770215     0.08200
H1114       H  0.31370807  0.44394821  0.25882588     0.08200
H1115       H  0.33421424  0.48884067  0.25893965     0.08200
H1116       H  0.29908215  0.46502489  0.23041676     0.05000
C1117       C  0.30968622  0.35066468  0.47777795    -0.20800
C1118       C  0.27984074  0.33291311  0.45821110    -0.07400
C1119       C  0.27879279  0.34163890  0.42147402     0.13500
C1120       C  0.30594268  0.37007308  0.40715794    -0.20900
C1121       C  0.33421355  0.38933180  0.42812772    -0.07400
C1122       C  0.33686065  0.37882734  0.46316213     0.13500
C1123       C  0.36745328  0.39839259  0.48586996    -0.24200
H1124       H  0.31247092  0.34084477  0.00481172     0.14700
H1125       H  0.30479125  0.37795747  0.37968880     0.14800
C1126       C  0.24913182  0.32215569  0.39739565    -0.24200
H1127       H  0.36638159  0.38404229  0.01383790     0.05000
H1128       H  0.37199432  0.42391573  0.48964810     0.08200
H1129       H  0.38911471  0.39939993  0.47213060     0.08200
H1130       H  0.22729484  0.32286052  0.40808829     0.08200
H1131       H  0.24366939  0.29616931  0.39577452     0.08200
H1132       H  0.25348630  0.33224200  0.36929837     0.05000
C1133       C  0.47359549  0.59003888  0.35063732    -0.20800
C1134       C  0.44326922  0.57745310  0.33256464    -0.07400
C1135       C  0.44054825  0.59589108  0.30338160     0.13500
C1136       C  0.46829444  0.62623384  0.29321546    -0.20900
C1137       C  0.49890753  0.63861998  0.31109319    -0.07400
C1138       C  0.50132964  0.61984741  0.34045222     0.13500
C1139       C  0.53283581  0.63016239  0.36159528    -0.24200
H1140       H  0.47603831  0.57576804  0.37251092     0.14700
H1141       H  0.46597945  0.64035065  0.27110804     0.14800
C1142       C  0.40849688  0.58419168  0.28320795    -0.24200
H1143       H  0.52988108  0.61157896  0.38240597     0.05000
H1144       H  0.54028133  0.65353974  0.37633459     0.08200
H1145       H  0.55280498  0.63303925  0.34297187     0.08200
H1146       H  0.38849610  0.57968955  0.30267219     0.08200
H1147       H  0.40192615  0.56115874  0.26819991     0.08200
H1148       H  0.41025359  0.60273660  0.26299814     0.05000
C1149       C  0.38654262  0.35196823  0.24264976    -0.20800
C1150       C  0.37346763  0.32368528  0.26476786    -0.07400
C1151       C  0.35368024  0.32116971  0.29482869     0.13500
C1152       C  0.35090437  0.34874956  0.30451668    -0.20900
C1153       C  0.36682134  0.37841446  0.28434471    -0.07400
C1154       C  0.38220760  0.37882152  0.25116510     0.13500
C1155       C  0.39439945  0.40728719  0.22482848    -0.24200
H1156       H  0.40014867  0.35294274  0.21836033     0.14700
H1157       H  0.33813102  0.34792984  0.32943851     0.14800
C1158       C  0.33737805  0.29047124  0.31803444    -0.24200
H1159       H  0.40526446  0.40294058  0.20005152     0.05000
H1160       H  0.41361532  0.43028975  0.23744911     0.08200
H1161       H  0.37340155  0.41064307  0.21628773     0.08200
H1162       H  0.35632905  0.28492906  0.32892599     0.08200
H1163       H  0.31919875  0.26928460  0.30158608     0.08200
H1164       H  0.32394953  0.29335091  0.34137672     0.05000
C1165       C  0.69311102  0.53365514  0.17853688    -0.20800
C1166       C  0.68337016  0.52511522  0.14213285    -0.07400
C1167       C  0.70374742  0.51855874  0.11922115     0.13500
C1168       C  0.73416980  0.52315178  0.13259422    -0.20900
C1169       C  0.74495771  0.53400383  0.16841574    -0.07400
C1170       C  0.72317169  0.53800290  0.19205277     0.13500
C1171       C  0.73114443  0.54745757  0.23150694    -0.24200
H1172       H  0.67713936  0.53749795  0.19681451     0.14700
H1173       H  0.75017706  0.51935529  0.11434440     0.14800
C1174       C  0.69427599  0.50777342  0.08044232    -0.24200
H1175       H  0.71038815  0.54773296  0.24596737     0.05000
H1176       H  0.75284448  0.57267887  0.23370903     0.08200
H1177       H  0.73608622  0.52930702  0.24568286     0.08200
H1178       H  0.69099099  0.52659655  0.06535576     0.08200
H1179       H  0.67094998  0.48367143  0.07976750     0.08200
H1180       H  0.71350518  0.50460461  0.06621687     0.05000
C1181       C  0.65057863  0.62909568  0.01644575    -0.20800
C1182       C  0.65544422  0.61102629  0.04383058    -0.07400
C1183       C  0.68654491  0.62504235  0.06148135     0.13500
C1184       C  0.71297289  0.65480964  0.04845946    -0.20900
C1185       C  0.70918212  0.67078925  0.01802079    -0.07400
C1186       C  0.67706395  0.65877356  0.00318588     0.13500
C1187       C  0.66763515  0.67570566  0.47079542    -0.24200
H1188       H  0.62628279  0.61924982  0.00432516     0.14700
H1189       H  0.73728218  0.66420005  0.06040034     0.14800
C1190       C  0.69202583  0.60875970  0.09414810    -0.24200
H1191       H  0.64090657  0.66442346  0.46433135     0.05000
H1192       H  0.68035110  0.67557591  0.44546980     0.08200
H1193       H  0.67652136  0.70148275  0.47961464     0.08200
H1194       H  0.69063300  0.58523287  0.08611099     0.08200
H1195       H  0.67295233  0.60360360  0.11505787     0.08200
H1196       H  0.71657000  0.62476495  0.10673553     0.05000
C1197       C  0.54367013  0.40578180  0.16559061    -0.20800
C1198       C  0.53785296  0.42013731  0.13463627    -0.07400
C1199       C  0.50600252  0.40371661  0.11875291     0.13500
C1200       C  0.48137529  0.37401752  0.13394241    -0.20900
C1201       C  0.48696648  0.35936765  0.16475957    -0.07400
C1202       C  0.51884957  0.37572493  0.18075576     0.13500
C1203       C  0.52706552  0.36206054  0.21380149    -0.24200
H1204       H  0.56779837  0.41839134  0.17835186     0.14700
H1205       H  0.45720749  0.36217421  0.12125783     0.14800
C1206       C  0.49695316  0.41778505  0.08662477    -0.24200
H1207       H  0.55295622  0.37832254  0.22287193     0.05000
H1208       H  0.52415326  0.33750441  0.20751646     0.08200
H1209       H  0.51050833  0.35980684  0.23661712     0.08200
H1210       H  0.51215518  0.41936604  0.06271496     0.08200
H1211       H  0.50104992  0.44265670  0.09355587     0.08200
H1212       H  0.47059151  0.40228171  0.07875207     0.05000
C1213       C  0.59740668  0.61363972  0.21524042    -0.20800
C1214       C  0.61735716  0.61861024  0.18476748    -0.07400
C1215       C  0.63717824  0.65107446  0.17092131     0.13500
C1216       C  0.63358459  0.67691175  0.18533232    -0.20900
C1217       C  0.61027109  0.67085653  0.21252687    -0.07400
C1218       C  0.59326654  0.63925424  0.22903532     0.13500
C1219       C  0.57044586  0.63220792  0.26096746    -0.24200
H1220       H  0.58264782  0.58895972  0.22631908     0.14700
H1221       H  0.64781895  0.70158703  0.17408255     0.14800
C1222       C  0.66208891  0.65874303  0.14104952    -0.24200
H1223       H  0.56191365  0.60725179  0.27257972     0.05000
H1224       H  0.54835270  0.63355623  0.25239004     0.08200
H1225       H  0.58336937  0.65053620  0.28274684     0.08200
H1226       H  0.64970625  0.64659245  0.11532877     0.08200
H1227       H  0.67963926  0.65039044  0.14938760     0.08200
H1228       H  0.67670910  0.68567560  0.13542619     0.05000
C1229       C  0.52414911  0.50843930  0.47511885    -0.20800
C1230       C  0.51442091  0.50513703  0.01403370    -0.07400
C1231       C  0.48004669  0.49304537  0.01927485     0.13500
C1232       C  0.45777034  0.48890656  0.48612415    -0.20900
C1233       C  0.47018844  0.49588986  0.45044303    -0.07400
C1234       C  0.50407245  0.50574333  0.44503787     0.13500
C1235       C  0.51977563  0.51432825  0.40786379    -0.24200
H1236       H  0.55006265  0.51660466  0.47068051     0.14700
H1237       H  0.43183884  0.48069130  0.49060617     0.14800
C1238       C  0.46419092  0.48268357  0.05622805    -0.24200
H1239       H  0.54683405  0.52383292  0.40916178     0.05000
H1240       H  0.51591127  0.53378873  0.39519623     0.08200
H1241       H  0.50898656  0.49205208  0.39039302     0.08200
H1242       H  0.47403917  0.50428358  0.07464808     0.08200
H1243       H  0.46897233  0.46351387  0.06781664     0.08200
H1244       H  0.43696459  0.47210025  0.05488755     0.05000
C1245       C  0.50716698  0.53186364  0.21565180    -0.20800
C1246       C  0.50915721  0.50583408  0.19935553    -0.07400
C1247       C  0.49358208  0.47429112  0.21640998     0.13500
C1248       C  0.47795499  0.47025996  0.24992119    -0.20900
C1249       C  0.47515698  0.49594608  0.26577887    -0.07400
C1250       C  0.49004849  0.52734107  0.24835087     0.13500
C1251       C  0.48871657  0.55652238  0.26403705    -0.24200
H1252       H  0.51969176  0.55613647  0.20313823     0.14700
H1253       H  0.46625061  0.44617891  0.26289247     0.14800
C1254       C  0.49217369  0.44424979  0.19922028    -0.24200
H1255       H  0.50371756  0.57927119  0.24790595     0.05000
H1256       H  0.49831952  0.56111606  0.29230012     0.08200
H1257       H  0.46312820  0.55228388  0.26344244     0.08200
H1258       H  0.51683755  0.44616857  0.19989130     0.08200
H1259       H  0.48325100  0.44164912  0.17076743     0.08200
H1260       H  0.47496266  0.42115791  0.21390593     0.05000
O1261       O  0.56235132  0.46392852  0.58845385    -0.85900
O1262       O  0.56270549  0.50865481  0.53683741    -0.82900
C1263       C  0.53543610  0.50826667  0.54176356     0.97600
O1264       O  0.52972475  0.51643495  0.57226513    -0.83000
O1265       O  0.53621615  0.53560971  0.64501409    -0.85600
C1266       C  0.52769267  0.51050259  0.66538385     1.02100
O1267       O  0.54224635  0.49428338  0.66277192    -0.78400
O1268       O  0.58285539  0.47210630  0.64318003    -0.78600
C1269       C  0.56235119  0.45284716  0.61987383     1.02100
O1270       O  0.63310463  0.50770102  0.60228932    -0.85900
O1271       O  0.62983943  0.55404321  0.55899133    -0.82900
C1272       C  0.62380628  0.57707353  0.55246933     0.97600
O1273       O  0.59473051  0.57243186  0.55639397    -0.83000
O1274       O  0.60185257  0.58816119  0.62679921    -0.85600
C1275       C  0.60412038  0.58716793  0.66054481     1.02100
O1276       O  0.59587148  0.55984838  0.67612306    -0.78400
O1277       O  0.63733394  0.53896322  0.64822809    -0.78500
C1278       C  0.64969804  0.52558033  0.62909256     1.02000
Cr1279     Cr  0.59609045  0.50933449  0.57364150     1.93700
Cr1280     Cr  0.56644464  0.55109683  0.60058783     1.93200
Cr1281     Cr  0.58947888  0.51707694  0.65452543     1.39100
O1282       O  0.58389748  0.52588068  0.60949589    -1.23600
O1283       O  0.34727894  0.48781957  0.86594693    -0.85900
O1284       O  0.35333753  0.44136646  0.90726488    -0.82900
C1285       C  0.36208804  0.42040998  0.91477399     0.97600
O1286       O  0.39155109  0.42672010  0.90935586    -0.83000
O1287       O  0.38308562  0.40960185  0.83951159    -0.85600
C1288       C  0.37750580  0.40913585  0.80616915     1.02100
O1289       O  0.38235967  0.43524739  0.79015090    -0.78400
O1290       O  0.34141475  0.45506516  0.82118962    -0.78600
C1291       C  0.33025147  0.46992423  0.83948007     1.02100
O1292       O  0.41748210  0.53209633  0.87724097    -0.85900
O1293       O  0.42000980  0.48876417  0.92846165    -0.82900
C1294       C  0.44817928  0.49137489  0.92275022     0.97600
O1295       O  0.45433981  0.48476628  0.89154297    -0.83000
O1296       O  0.44629991  0.46415031  0.81857314    -0.85600
C1297       C  0.45202981  0.48759425  0.79666930     1.02100
O1298       O  0.43535165  0.50175111  0.79836904    -0.78400
O1299       O  0.39559361  0.52309277  0.82289320    -0.78500
C1300       C  0.41669581  0.54254871  0.84564443     1.02000
Cr1301     Cr  0.38533160  0.48671749  0.89263546     1.93700
Cr1302     Cr  0.41785098  0.44831235  0.86417261     1.93200
Cr1303     Cr  0.38894671  0.47809759  0.81128942     1.39100
O1304       O  0.39772477  0.47114787  0.85591681    -1.23600
O1305       O  0.55077827  0.75898821  0.76357528    -0.85900
O1306       O  0.59366347  0.75817242  0.71020808    -0.82900
C1307       C  0.62076981  0.78510428  0.71483358     0.97600
O1308       O  0.63480026  0.79068584  0.74529439    -0.83000
O1309       O  0.64842449  0.78341006  0.81773714    -0.85600
C1310       C  0.63208012  0.79156016  0.83896207     1.02100
O1311       O  0.60132170  0.77692103  0.83711809    -0.78400
O1312       O  0.53854437  0.73683842  0.81774397    -0.78600
C1313       C  0.53994108  0.75812518  0.79532173     1.02100
O1314       O  0.52343779  0.68775021  0.77628753    -0.85900
O1315       O  0.57180713  0.69085953  0.73171126    -0.82900
C1316       C  0.60063946  0.69678011  0.72431777     0.97600
O1317       O  0.62521484  0.72561848  0.72849127    -0.83000
O1318       O  0.63513028  0.71774144  0.79828099    -0.85600
C1319       C  0.63272487  0.71542794  0.83207019     1.02100
O1320       O  0.61384349  0.72345369  0.84836664    -0.78400
O1321       O  0.55197652  0.68270694  0.82018602    -0.78500
C1322       C  0.52582553  0.67064445  0.80205521     1.02000
Cr1323     Cr  0.56153335  0.72486510  0.74738283     1.93700
Cr1324     Cr  0.63312696  0.75361417  0.77299588     1.93200
Cr1325     Cr  0.57714944  0.73006808  0.82785777     1.39100
O1326       O  0.59082252  0.73643189  0.78264866    -1.23600
O1327       O  0.79237492  0.97253028  0.53589256    -0.85900
O1328       O  0.74131285  0.96701428  0.57815469    -0.82900
C1329       C  0.71191760  0.95925823  0.58557999     0.97600
O1330       O  0.68838468  0.93016942  0.58006133    -0.83000
O1331       O  0.67986321  0.93969054  0.00800939    -0.85600
C1332       C  0.68377833  0.94312675  0.97429301     1.02100
O1333       O  0.70342198  0.93569939  0.95872085    -0.78400
O1334       O  0.76424621  0.97808433  0.98743748    -0.78600
C1335       C  0.78961193  0.99133131  0.00692772     1.02100
O1336       O  0.76667165  0.90155843  0.54734127    -0.85900
O1337       O  0.72063660  0.89929875  0.59821555    -0.82900
C1338       C  0.69398004  0.87209691  0.59242034     0.97600
O1339       O  0.68116453  0.86670339  0.56127455    -0.83000
O1340       O  0.66965266  0.87614798  0.48853674    -0.85600
C1341       C  0.68725135  0.86781655  0.96915153     1.02100
O1342       O  0.71796105  0.88329558  0.97193579    -0.78400
O1343       O  0.77997570  0.92568009  0.99255969    -0.78500
C1344       C  0.77733342  0.90199857  0.51562175     1.02000
Cr1345     Cr  0.75378878  0.93425952  0.56294404     1.93700
Cr1346     Cr  0.68308528  0.90428185  0.53447579     1.93200
Cr1347     Cr  0.74047324  0.93042400  0.98072931     1.39100
O1348       O  0.72575627  0.92251395  0.52645064    -1.23600
O1349       O  0.88062932  0.42364019  0.59325477    -0.85900
O1350       O  0.92349336  0.42253428  0.54051243    -0.82900
C1351       C  0.94988546  0.45018742  0.54438441     0.97600
O1352       O  0.96420305  0.45675687  0.57483310    -0.83000
O1353       O  0.97935344  0.45116160  0.64764909    -0.85600
C1354       C  0.96313700  0.45856830  0.66975690     1.02100
O1355       O  0.93225463  0.44385711  0.66793474    -0.78400
O1356       O  0.86930341  0.40328585  0.64835757    -0.78600
C1357       C  0.87025897  0.42375284  0.62501763     1.02100
O1358       O  0.85427263  0.35309392  0.60768564    -0.85900
O1359       O  0.90348846  0.35591414  0.56437945    -0.82900
C1360       C  0.93266225  0.36258520  0.55737735     0.97600
O1361       O  0.95641399  0.39205282  0.55998546    -0.83000
O1362       O  0.96772068  0.38638234  0.63008252    -0.85600
C1363       C  0.96478791  0.38365533  0.66392556     1.02100
O1364       O  0.94474737  0.39033890  0.67983235    -0.78400
O1365       O  0.88226561  0.34881221  0.65276495    -0.78500
C1366       C  0.85635434  0.33631638  0.63389890     1.02000
Cr1367     Cr  0.89215581  0.38973428  0.57844050     1.93700
Cr1368     Cr  0.96400896  0.42076664  0.60368081     1.93200
Cr1369     Cr  0.90793727  0.39669412  0.65911261     1.39100
O1370       O  0.92157468  0.40257519  0.61377358    -1.23600
O1371       O  0.12235791  0.63978022  0.86713129    -0.85900
O1372       O  0.07230035  0.63662513  0.90869287    -0.82900
C1373       C  0.04356390  0.63109225  0.91620344     0.97600
O1374       O  0.01828904  0.60382285  0.90792278    -0.83000
O1375       O  0.01245203  0.61104042  0.83630632    -0.85600
C1376       C  0.01683164  0.61356042  0.80261009     1.02100
O1377       O  0.03644730  0.60555420  0.78833125    -0.78400
O1378       O  0.09748503  0.64610640  0.81988749    -0.78600
C1379       C  0.12226066  0.65721885  0.84051781     1.02100
O1380       O  0.09409680  0.56879340  0.87925704    -0.85900
O1381       O  0.04986239  0.56994424  0.92973745    -0.82900
C1382       C  0.02251508  0.54355169  0.92511765     0.97600
O1383       O  0.00858351  0.53815005  0.89451496    -0.83000
O1384       O  0.99925070  0.54506880  0.82065373    -0.85600
C1385       C  0.01567031  0.53663763  0.80008099     1.02100
O1386       O  0.04659642  0.55119752  0.80238290    -0.78400
O1387       O  0.10914176  0.59139878  0.82551435    -0.78500
C1388       C  0.10663945  0.57010931  0.84845395     1.02000
Cr1389     Cr  0.08297981  0.60290813  0.89384333     1.93700
Cr1390     Cr  0.01269916  0.57538091  0.86436709     1.93200
Cr1391     Cr  0.07135888  0.59835045  0.81229319     1.39100
O1392       O  0.05540676  0.59202117  0.85693771    -1.23600
O1393       O  0.86311505  0.77364550  0.92454032    -0.85900
O1394       O  0.81760599  0.72985343  0.87370983    -0.82900
C1395       C  0.81745000  0.70270453  0.87830137     0.97600
O1396       O  0.81040238  0.68936780  0.90928497    -0.83000
O1397       O  0.79089849  0.67689027  0.98232132    -0.85600
C1398       C  0.81581270  0.69316286  0.00284652     1.02100
O1399       O  0.82947329  0.72090459  0.49876528    -0.78400
O1400       O  0.85554936  0.78615162  0.97953672    -0.78600
C1401       C  0.87443072  0.78448792  0.95586758     1.02100
O1402       O  0.82081505  0.80197788  0.93853470    -0.85900
O1403       O  0.77300558  0.75250450  0.89627471    -0.82900
C1404       C  0.75016280  0.72353857  0.88955145     0.97600
O1405       O  0.75495555  0.69922196  0.89356271    -0.83000
O1406       O  0.73874670  0.69058905  0.96385806    -0.85600
C1407       C  0.73622545  0.69049020  0.49483888     1.02100
O1408       O  0.76342516  0.70923645  0.51068539    -0.78400
O1409       O  0.78472336  0.77068819  0.48121823    -0.78500
C1410       C  0.80360810  0.80145785  0.96566093     1.02000
Cr1411     Cr  0.81783281  0.76285058  0.91029059     1.93700
Cr1412     Cr  0.77585503  0.69188676  0.93779715     1.93200
Cr1413     Cr  0.80668366  0.74506143  0.48908097     1.39100
O1414       O  0.80123382  0.73435537  0.94647620    -1.23600
O1415       O  0.83339925  0.53081110  0.69681544    -0.85900
O1416       O  0.87957343  0.58016165  0.74044570    -0.82900
C1417       C  0.90130033  0.60932230  0.74846260     0.97600
O1418       O  0.89508998  0.63275422  0.74524219    -0.83000
O1419       O  0.91337151  0.64335957  0.67573824    -0.85600
C1420       C  0.91368466  0.64038847  0.64206030     1.02100
O1421       O  0.88684601  0.62168092  0.62538551    -0.78400
O1422       O  0.86516686  0.55888317  0.65157821    -0.78600
C1423       C  0.85218202  0.53309071  0.67047181     1.02100
O1424       O  0.78887795  0.55693711  0.71109050    -0.85900
O1425       O  0.83270551  0.60031012  0.76322387    -0.82900
C1426       C  0.83187489  0.62701614  0.75892649     0.97600
O1427       O  0.83893800  0.64079086  0.72814218    -0.83000
O1428       O  0.86069234  0.65595042  0.65562925    -0.85600
C1429       C  0.83599694  0.63944105  0.63488044     1.02100
O1430       O  0.82007896  0.60887154  0.63756356    -0.78400
O1431       O  0.79768461  0.54640224  0.65577638    -0.78500
C1432       C  0.77825025  0.54738053  0.67923084     1.02000
Cr1433     Cr  0.83435834  0.56863018  0.72599020     1.93700
Cr1434     Cr  0.87501106  0.64040888  0.70056655     1.93200
Cr1435     Cr  0.84314262  0.58474610  0.64548230     1.39100
O1436       O  0.85086524  0.59802687  0.69070729    -1.23600
O1437       O  0.68114546  0.15193786  0.69929362    -0.85900
O1438       O  0.68403906  0.10621052  0.74380772    -0.82900
C1439       C  0.69032925  0.08354948  0.75137861     0.97600
O1440       O  0.71958698  0.08842470  0.74826180    -0.83000
O1441       O  0.71390275  0.07179680  0.67849854    -0.85600
C1442       C  0.71137524  0.07181425  0.64466504     1.02100
O1443       O  0.71916150  0.09872047  0.62837253    -0.78400
O1444       O  0.67751268  0.11939236  0.65518205    -0.78600
C1445       C  0.66490264  0.13320140  0.67286695     1.02100
O1446       O  0.75161376  0.19594113  0.71432858    -0.85900
O1447       O  0.75040431  0.15193088  0.76717483    -0.82900
C1448       C  0.77784683  0.15252741  0.76335272     0.97600
O1449       O  0.78459895  0.14484462  0.73304915    -0.83000
O1450       O  0.77934035  0.12474665  0.66030234    -0.85600
C1451       C  0.78741257  0.14942062  0.63934512     1.02100
O1452       O  0.77228003  0.16504951  0.64104118    -0.78400
O1453       O  0.73184646  0.18715933  0.65915716    -0.78500
C1454       C  0.75231768  0.20653659  0.68249340     1.02000
Cr1455     Cr  0.71774122  0.15077037  0.72920067     1.93700
Cr1456     Cr  0.74861155  0.10949593  0.70446547     1.93200
Cr1457     Cr  0.72524104  0.14186977  0.64892576     1.39100
O1458       O  0.73073070  0.13403996  0.69427771    -1.23600
O1459       O  0.89798774  0.12889153  0.92905020    -0.85900
O1460       O  0.89784227  0.17301641  0.87725573    -0.82900
C1461       C  0.87061338  0.17270098  0.88192177     0.97600
O1462       O  0.86445484  0.18020238  0.91264008    -0.83000
O1463       O  0.87168158  0.20003353  0.98550324    -0.85600
C1464       C  0.86358675  0.17518234  0.00619249     1.02100
O1465       O  0.87830310  0.15840452  0.50765240    -0.78400
O1466       O  0.91939253  0.13762527  0.98351539    -0.78600
C1467       C  0.89846597  0.11828924  0.96063004     1.02100
O1468       O  0.96889446  0.17292853  0.94183177    -0.85900
O1469       O  0.96500849  0.21895703  0.89861583    -0.82900
C1470       C  0.95839358  0.24157339  0.89186487     0.97600
O1471       O  0.92911160  0.23633993  0.89592654    -0.83000
O1472       O  0.93701935  0.25280778  0.96578188    -0.85600
C1473       C  0.93835365  0.25174751  0.50183314     1.02100
O1474       O  0.93108863  0.22510950  0.51850463    -0.78400
O1475       O  0.97328057  0.20457828  0.49143835    -0.78500
C1476       C  0.98589335  0.19170640  0.96784372     1.02000
Cr1477     Cr  0.93152702  0.17412026  0.91368106     1.93700
Cr1478     Cr  0.90137326  0.21530926  0.94055092     1.93200
Cr1479     Cr  0.92540476  0.18201825  0.49837830     1.39100
O1480       O  0.91937381  0.19063356  0.94957972    -1.23600
O1481       O  0.19193466  0.44079862  0.76396512    -0.85900
O1482       O  0.14844446  0.39675038  0.71147271    -0.82900
C1483       C  0.14965428  0.37039935  0.71684003     0.97600
O1484       O  0.14135864  0.35626444  0.74729021    -0.83000
O1485       O  0.12056006  0.34279301  0.81932210    -0.85600
C1486       C  0.14518498  0.35940168  0.84002267     1.02100
O1487       O  0.16102158  0.39014686  0.83738728    -0.78400
O1488       O  0.18180893  0.45265650  0.81783302    -0.78600
C1489       C  0.20200265  0.45163912  0.79573312     1.02100
O1490       O  0.14625003  0.46620057  0.77600413    -0.85900
O1491       O  0.10126160  0.41677781  0.73225191    -0.82900
C1492       C  0.07960903  0.38761954  0.72422121     0.97600
O1493       O  0.08486353  0.36375043  0.72949012    -0.83000
O1494       O  0.06718919  0.35459605  0.79988332    -0.85600
C1495       C  0.06752982  0.35790343  0.83364766     1.02100
O1496       O  0.09456923  0.37680958  0.84963272    -0.78400
O1497       O  0.11427812  0.43835940  0.82144653    -0.78500
C1498       C  0.12679570  0.46362689  0.80169284     1.02000
Cr1499     Cr  0.14629988  0.42857111  0.74789799     1.93700
Cr1500     Cr  0.10541383  0.35719221  0.77452680     1.93200
Cr1501     Cr  0.13728362  0.41365548  0.82861338     1.39100
O1502       O  0.12956628  0.39965374  0.78358137    -1.23600
O1503       O  0.17005722  0.20228653  0.53873069    -0.85900
O1504       O  0.21666528  0.25188106  0.58124797    -0.82900
C1505       C  0.23955901  0.28091186  0.58741015     0.97600
O1506       O  0.23466409  0.30521822  0.58345004    -0.83000
O1507       O  0.25143056  0.31384518  0.01116872    -0.85600
C1508       C  0.25116398  0.30980768  0.97752775     1.02100
O1509       O  0.22430997  0.29016798  0.96179292    -0.78400
O1510       O  0.20238572  0.22865526  0.99118015    -0.78600
C1511       C  0.18774047  0.20275669  0.00985238     1.02100
O1512       O  0.12646966  0.22960014  0.55222933    -0.85900
O1513       O  0.17132512  0.27364196  0.60343083    -0.82900
C1514       C  0.17009314  0.29997255  0.59796864     0.97600
O1515       O  0.17802128  0.31379813  0.56734104    -0.83000
O1516       O  0.19765110  0.32657026  0.49447537    -0.85600
C1517       C  0.17486672  0.31039246  0.97014495     1.02100
O1518       O  0.15896765  0.27957563  0.97202304    -0.78400
O1519       O  0.13518454  0.21716181  0.99334456    -0.78500
C1520       C  0.11536903  0.21798104  0.52108765     1.02000
Cr1521     Cr  0.17189699  0.24100381  0.56693049     1.93700
Cr1522     Cr  0.21317149  0.31210308  0.53919861     1.93200
Cr1523     Cr  0.18091090  0.25472353  0.98261293     1.39100
O1524       O  0.18838652  0.26952730  0.53078592    -1.23600
O1525       O  0.22972812  0.79766361  0.76679319    -0.85900
O1526       O  0.23146468  0.84230290  0.71444464    -0.82900
C1527       C  0.20444940  0.84261438  0.71849739     0.97600
O1528       O  0.19814852  0.85017816  0.74909384    -0.83000
O1529       O  0.20466952  0.87109034  0.82120955    -0.85600
C1530       C  0.19525714  0.84603408  0.84178678     1.02100
O1531       O  0.20951081  0.82943313  0.84073459    -0.78400
O1532       O  0.24873536  0.80542743  0.82231247    -0.78600
C1533       C  0.22918717  0.78629535  0.79814414     1.02100
O1534       O  0.29999177  0.83986159  0.78168903    -0.85900
O1535       O  0.29858389  0.88687911  0.73765067    -0.82900
C1536       C  0.29243160  0.90955650  0.72967746     0.97600
O1537       O  0.26334223  0.90492973  0.73292750    -0.83000
O1538       O  0.27065782  0.92226548  0.80272068    -0.85600
C1539       C  0.27343239  0.92213519  0.83646513     1.02100
O1540       O  0.26452742  0.89502007  0.85296437    -0.78400
O1541       O  0.30471480  0.87186070  0.82709654    -0.78500
C1542       C  0.31621290  0.85718290  0.80895429     1.02000
Cr1543     Cr  0.26406929  0.84249957  0.75212156     1.93700
Cr1544     Cr  0.23496690  0.88505242  0.77712720     1.93200
Cr1545     Cr  0.25680752  0.85119691  0.83270831     1.39100
O1546       O  0.25181857  0.85957144  0.78731117    -1.23600
O1547       O  0.01538616  0.82371667  0.53469729    -0.85900
O1548       O  0.01913697  0.77840226  0.57919462    -0.82900
C1549       C  0.02604567  0.75612335  0.58660015     0.97600
O1550       O  0.05571410  0.76202173  0.58400647    -0.83000
O1551       O  0.05022773  0.74588855  0.01470386    -0.85600
C1552       C  0.05052102  0.74609221  0.98095755     1.02100
O1553       O  0.05736849  0.77245913  0.96395229    -0.78400
O1554       O  0.01416561  0.79242226  0.99080652    -0.78600
C1555       C  0.00171384  0.80647157  0.00863754     1.02100
O1556       O  0.08519988  0.86884824  0.55001601    -0.85900
O1557       O  0.08547298  0.82538837  0.60292836    -0.82900
C1558       C  0.11327997  0.82665316  0.59909364     0.97600
O1559       O  0.12031394  0.81976124  0.56858507    -0.83000
O1560       O  0.11576898  0.80029993  0.49632858    -0.85600
C1561       C  0.12406713  0.82344882  0.97489445     1.02100
O1562       O  0.10915209  0.83928904  0.97695579    -0.78400
O1563       O  0.06756466  0.86008020  0.99549961    -0.78500
C1564       C  0.08582659  0.87932010  0.51812274     1.02000
Cr1565     Cr  0.05226230  0.82343376  0.56480731     1.93700
Cr1566     Cr  0.08482741  0.78396844  0.54029173     1.93200
Cr1567     Cr  0.06203309  0.81528061  0.98481716     1.39100
O1568       O  0.06601442  0.80754409  0.52978236    -1.23600
O1569       O  0.52519603  0.10183285  0.59718170    -0.85900
O1570       O  0.48065934  0.05783927  0.54584958    -0.82900
C1571       C  0.48063076  0.03083827  0.55111390     0.97600
O1572       O  0.47257589  0.01741633  0.58202123    -0.83000
O1573       O  0.45199141  0.00586823  0.65485577    -0.85600
C1574       C  0.47612906  0.02219915  0.67632486     1.02100
O1575       O  0.49289360  0.05292345  0.67322683    -0.78400
O1576       O  0.51633322  0.11523610  0.65096130    -0.78600
C1577       C  0.53577765  0.11303112  0.62869421     1.02100
O1578       O  0.48258732  0.13046570  0.60839682    -0.85900
O1579       O  0.43540375  0.08065367  0.56617953    -0.82900
C1580       C  0.41294547  0.05163085  0.55892120     0.97600
O1581       O  0.41751122  0.02729296  0.56409894    -0.83000
O1582       O  0.40018422  0.01953839  0.63425453    -0.85600
C1583       C  0.40074271  0.02358930  0.66786104     1.02100
O1584       O  0.42777606  0.04271138  0.68358205    -0.78400
O1585       O  0.44936738  0.10380088  0.65310544    -0.78500
C1586       C  0.46414726  0.12962782  0.63431887     1.02000
Cr1587     Cr  0.48016822  0.09109296  0.58135077     1.93700
Cr1588     Cr  0.43764658  0.02036943  0.60931566     1.93200
Cr1589     Cr  0.47093034  0.07784897  0.66222232     1.39100
O1590       O  0.46301488  0.06286571  0.61760512    -1.23600
O1591       O  0.50148923  0.86303634  0.86991318    -0.85900
O1592       O  0.54698642  0.91244015  0.91328653    -0.82900
C1593       C  0.56891229  0.94161059  0.92089492     0.97600
O1594       O  0.56307404  0.96523752  0.91724281    -0.83000
O1595       O  0.57997429  0.97510493  0.84695286    -0.85600
C1596       C  0.57934859  0.97157283  0.81324533     1.02100
O1597       O  0.55217583  0.95302911  0.79736652    -0.78400
O1598       O  0.53278819  0.89141967  0.82446586    -0.78600
C1599       C  0.52050087  0.86577796  0.84359453     1.02100
O1600       O  0.45568763  0.88818708  0.88388182    -0.85900
O1601       O  0.49989821  0.93217824  0.93617815    -0.82900
C1602       C  0.49937911  0.95903886  0.93195170     0.97600
O1603       O  0.50649255  0.97279722  0.90120567    -0.83000
O1604       O  0.52658202  0.98710398  0.82885384    -0.85600
C1605       C  0.50202026  0.97086384  0.80794662     1.02100
O1606       O  0.48599831  0.94004085  0.81021324    -0.78400
O1607       O  0.46539537  0.87713473  0.82940953    -0.78500
C1608       C  0.44532239  0.87755928  0.85211709     1.02000
Cr1609     Cr  0.50163119  0.90055879  0.89891244     1.93700
Cr1610     Cr  0.54205116  0.97222032  0.87299038     1.93200
Cr1611     Cr  0.50968344  0.91621885  0.81835960     1.39100
O1612       O  0.51778414  0.92982784  0.86349342    -1.23600
O1613       O  0.46123402  0.30861582  0.69985873    -0.85900
O1614       O  0.41182799  0.30567243  0.74378400    -0.82900
C1615       C  0.38273160  0.29811305  0.75255763     0.97600
O1616       O  0.35917137  0.26871363  0.74910942    -0.83000
O1617       O  0.34820131  0.27571819  0.67907803    -0.85600
C1618       C  0.35179271  0.27934574  0.64539244     1.02100
O1619       O  0.37035730  0.27092560  0.62894362    -0.78400
O1620       O  0.43274456  0.31213650  0.65488470    -0.78600
C1621       C  0.45908371  0.32466881  0.67290260     1.02100
O1622       O  0.43554729  0.23870719  0.71518905    -0.85900
O1623       O  0.39212753  0.23902631  0.76754340    -0.82900
C1624       C  0.36551520  0.21146605  0.76364112     0.97600
O1625       O  0.35160901  0.20470768  0.73298042    -0.83000
O1626       O  0.33612662  0.21064484  0.66069302    -0.85600
C1627       C  0.35229811  0.20219492  0.63972730     1.02100
O1628       O  0.38308679  0.21710064  0.64090210    -0.78400
O1629       O  0.44573813  0.25755202  0.65957390    -0.78500
C1630       C  0.44505771  0.23750409  0.68337096     1.02000
Cr1631     Cr  0.42354935  0.27214446  0.72965143     1.93700
Cr1632     Cr  0.35162934  0.24078959  0.70480875     1.93200
Cr1633     Cr  0.40718972  0.26430842  0.64911779     1.39100
O1634       O  0.39398046  0.25890074  0.69452419    -1.23600
O1635       O  0.22002947  0.09530350  0.93074184    -0.85900
O1636       O  0.26403538  0.09398766  0.87972862    -0.82900
C1637       C  0.29084705  0.12117578  0.88417898     0.97600
O1638       O  0.30405556  0.12751234  0.91519904    -0.83000
O1639       O  0.31716682  0.12033097  0.98823948    -0.85600
C1640       C  0.30075798  0.12855248  0.00912113     1.02100
O1641       O  0.26873936  0.11402547  0.50635062    -0.78400
O1642       O  0.20781874  0.07563176  0.98607258    -0.78600
C1643       C  0.20950264  0.09611038  0.96217657     1.02100
O1644       O  0.19193264  0.02520497  0.94456648    -0.85900
O1645       O  0.24192020  0.02681910  0.90287085    -0.82900
C1646       C  0.27106644  0.03336543  0.89582378     0.97600
O1647       O  0.29507209  0.06255899  0.89946036    -0.83000
O1648       O  0.30409887  0.05514428  0.96948407    -0.85600
C1649       C  0.29894210  0.05147197  0.50264326     1.02100
O1650       O  0.27954044  0.05907567  0.51861032    -0.78400
O1651       O  0.21715368  0.01950247  0.49000077    -0.78500
C1652       C  0.19218241  0.00821965  0.97155652     1.02000
Cr1653     Cr  0.23113870  0.06115383  0.91652344     1.93700
Cr1654     Cr  0.30215529  0.09058957  0.94369502     1.93200
Cr1655     Cr  0.24381302  0.06712415  0.49703919     1.39100
O1656       O  0.25956294  0.07303421  0.95272880    -1.23600
C1657       C  0.31949653  0.15784360  0.78794458    -0.20800
C1658       C  0.34823424  0.18826755  0.79517641    -0.07400
C1659       C  0.35741349  0.19643962  0.83215642     0.13500
C1660       C  0.33771411  0.17457703  0.86005788    -0.20900
C1661       C  0.30882433  0.14425987  0.85278633    -0.07400
C1662       C  0.29989788  0.13592842  0.81577382     0.13500
C1663       C  0.26999487  0.10385072  0.80482704    -0.24200
H1664       H  0.31198016  0.15101493  0.75997121     0.14700
H1665       H  0.34523000  0.18132406  0.88803754     0.14800
C1666       C  0.38779922  0.22815265  0.84290579    -0.24200
H1667       H  0.26685755  0.10156642  0.77485784     0.05000
H1668       H  0.24731033  0.10237947  0.81635985     0.08200
H1669       H  0.27260539  0.08270207  0.81453026     0.08200
H1670       H  0.38564795  0.24960619  0.83350461     0.08200
H1671       H  0.41009868  0.22916251  0.83084977     0.08200
H1672       H  0.39127753  0.23029504  0.87283850     0.05000
C1673       C  0.31092818  0.18136081  0.59102875    -0.20800
C1674       C  0.33660893  0.17973180  0.60887300    -0.07400
C1675       C  0.35115355  0.16257168  0.59239360     0.13500
C1676       C  0.34050201  0.14883084  0.55785162    -0.20900
C1677       C  0.31465703  0.15027070  0.54004966    -0.07400
C1678       C  0.29957689  0.16676254  0.55700695     0.13500
C1679       C  0.27181051  0.16966388  0.53949411    -0.24200
H1680       H  0.30034420  0.19511799  0.60325623     0.14700
H1681       H  0.35139931  0.13543396  0.54545394     0.14800
C1682       C  0.37719159  0.15768078  0.61134090    -0.24200
H1683       H  0.26522234  0.18562395  0.55552665     0.05000
H1684       H  0.24909540  0.14520819  0.53824417     0.08200
H1685       H  0.27911750  0.18037003  0.51179537     0.08200
H1686       H  0.36854724  0.14735001  0.63896893     0.08200
H1687       H  0.40075213  0.18136800  0.61323648     0.08200
H1688       H  0.38253338  0.14022503  0.59636397     0.05000
C1689       C  0.44535422  0.15616094  0.67913271    -0.20800
C1690       C  0.46126610  0.15880466  0.64578105    -0.07400
C1691       C  0.47380992  0.18869337  0.62589830     0.13500
C1692       C  0.46954993  0.21451302  0.63970577    -0.20900
C1693       C  0.45303824  0.21140558  0.67283983    -0.07400
C1694       C  0.44085284  0.18155950  0.69277376     0.13500
C1695       C  0.42174947  0.17516061  0.72783406    -0.24200
H1696       H  0.43582906  0.13364301  0.69495376     0.14700
H1697       H  0.47861624  0.23708320  0.62404646     0.14800
C1698       C  0.49104267  0.19351948  0.58994097    -0.24200
H1699       H  0.41367015  0.15013534  0.73898510     0.05000
H1700       H  0.39910393  0.17684709  0.72308675     0.08200
H1701       H  0.43749939  0.19321786  0.74879698     0.08200
H1702       H  0.47428954  0.17431835  0.57047216     0.08200
H1703       H  0.51389103  0.19201711  0.59368463     0.08200
H1704       H  0.49832842  0.21803304  0.57780586     0.05000
C1705       C  0.36290676  0.05581754  0.56903688    -0.20800
C1706       C  0.38068236  0.04614285  0.54625460    -0.07400
C1707       C  0.36749169  0.03190438  0.51236529     0.13500
C1708       C  0.33802848  0.03015743  0.50075739    -0.20900
C1709       C  0.32161173  0.04275974  0.52204045    -0.07400
C1710       C  0.33292938  0.05335974  0.55784870     0.13500
C1711       C  0.31404971  0.06234300  0.58428524    -0.24200
H1712       H  0.37279211  0.06566891  0.59568138     0.14700
H1713       H  0.33062277  0.02072139  0.97482365     0.14800
C1714       C  0.38682362  0.02003202  0.98961811    -0.24200
H1715       H  0.32627348  0.06912002  0.61129446     0.05000
H1716       H  0.28884181  0.04089627  0.58810805     0.08200
H1717       H  0.31217752  0.08369207  0.57424108     0.08200
H1718       H  0.38943497  0.00032021  0.00356207     0.08200
H1719       H  0.41168721  0.04093028  0.98293436     0.08200
H1720       H  0.37333994  0.00976938  0.96373260     0.05000
C1721       C  0.49407988  0.00649057  0.95575486    -0.20800
C1722       C  0.49387070  0.97669667  0.96318535    -0.07400
C1723       C  0.49145562  0.96677124  0.00011102     0.13500
C1724       C  0.48590923  0.98287620  0.52816256    -0.20900
C1725       C  0.48678238  0.01299848  0.52056024    -0.07400
C1726       C  0.49192488  0.02624878  0.98334873     0.13500
C1727       C  0.49290492  0.05786602  0.97226897    -0.24200
H1728       H  0.49630249  0.01480635  0.92784628     0.14700
H1729       H  0.48263292  0.97420413  0.55601659     0.14800
C1730       C  0.49185394  0.93582524  0.01113045    -0.24200
H1731       H  0.49588536  0.06205285  0.94244715     0.05000
H1732       H  0.51416204  0.07920405  0.98553268     0.08200
H1733       H  0.46934291  0.05497514  0.47920328     0.08200
H1734       H  0.51557510  0.93760984  0.00283660     0.08200
H1735       H  0.47081326  0.91398590  0.99828113     0.08200
H1736       H  0.48490133  0.92756020  0.54146750     0.05000
C1737       C  0.46643279  0.96538997  0.75547545    -0.20800
C1738       C  0.49430303  0.98617953  0.77680429    -0.07400
C1739       C  0.51632116  0.01842214  0.76413280     0.13500
C1740       C  0.51037934  0.02833007  0.73035314    -0.20900
C1741       C  0.48287249  0.00730010  0.70864284    -0.07400
C1742       C  0.46072443  0.97514246  0.72145982     0.13500
C1743       C  0.43135031  0.95052306  0.69965974    -0.24200
H1744       H  0.44926418  0.94063676  0.76492547     0.14700
H1745       H  0.52750043  0.05313471  0.72104688     0.14800
C1746       C  0.54624150  0.04274358  0.78548015    -0.24200
H1747       H  0.41747039  0.92633041  0.71380194     0.05000
H1748       H  0.43985558  0.94614351  0.67317590     0.08200
H1749       H  0.41385036  0.95969889  0.69500765     0.08200
H1750       H  0.56385677  0.03346457  0.78868799     0.08200
H1751       H  0.53843905  0.04677601  0.81257684     0.08200
H1752       H  0.55977556  0.06713503  0.77168785     0.05000
C1753       C  0.16972371  0.95621125  0.50637492    -0.20800
C1754       C  0.16233053  0.97694385  0.98295800    -0.07400
C1755       C  0.13900427  0.95409958  0.95829767     0.13500
C1756       C  0.11339977  0.92370895  0.97144454    -0.20900
C1757       C  0.11201609  0.91303292  0.50731989    -0.07400
C1758       C  0.14484752  0.92599942  0.51997142     0.13500
C1759       C  0.15455401  0.90754754  0.54656208    -0.24200
H1760       H  0.19475047  0.96536238  0.51605447     0.14700
H1761       H  0.09647512  0.90588217  0.95204443     0.14800
C1762       C  0.14189022  0.96070932  0.91799229    -0.24200
H1763       H  0.18161979  0.92057899  0.55163276     0.05000
H1764       H  0.14749320  0.88276046  0.53565715     0.08200
H1765       H  0.14227940  0.90503912  0.57312003     0.08200
H1766       H  0.16628668  0.96516464  0.90815656     0.08200
H1767       H  0.13922077  0.98259732  0.91203166     0.08200
H1768       H  0.12240585  0.93952595  0.90257785     0.05000
C1769       C  0.38926565  0.86841560  0.86707258    -0.20800
C1770       C  0.41068525  0.86764906  0.84082942    -0.07400
C1771       C  0.39939519  0.86060134  0.80413714     0.13500
C1772       C  0.36825715  0.85655134  0.79485804    -0.20900
C1773       C  0.34787935  0.85937384  0.82082622    -0.07400
C1774       C  0.35819984  0.86430990  0.85777360     0.13500
C1775       C  0.33659533  0.86477226  0.88803050    -0.24200
H1776       H  0.39718882  0.87313298  0.89518005     0.14700
H1777       H  0.36017953  0.85214725  0.76677492     0.14800
C1778       C  0.41981123  0.85778752  0.77406860    -0.24200
H1779       H  0.34753483  0.86601626  0.91522453     0.05000
H1780       H  0.31209237  0.84188683  0.88722796     0.08200
H1781       H  0.33352153  0.88678898  0.88545463     0.08200
H1782       H  0.42580015  0.83813343  0.78078022     0.08200
H1783       H  0.44284738  0.88174616  0.77003254     0.08200
H1784       H  0.40642946  0.85117225  0.74770966     0.05000
C1785       C  0.31311392  0.95858000  0.68963692    -0.20800
C1786       C  0.31940169  0.94171685  0.71726273    -0.07400
C1787       C  0.35114684  0.95638012  0.73349633     0.13500
C1788       C  0.37630764  0.98638486  0.71979738    -0.20900
C1789       C  0.37117403  0.00087343  0.68890850    -0.07400
C1790       C  0.33879081  0.98775393  0.67471731     0.13500
C1791       C  0.33115616  0.00407336  0.64371990    -0.24200
H1792       H  0.28843044  0.94791681  0.67831348     0.14700
H1793       H  0.40098573  0.99676475  0.73106951     0.14800
C1794       C  0.35908496  0.94041743  0.76475575    -0.24200
H1795       H  0.30415783  0.99214519  0.63850327     0.05000
H1796       H  0.34285107  0.00221640  0.61833671     0.08200
H1797       H  0.34024853  0.03039580  0.65032944     0.08200
H1798       H  0.35780576  0.91716720  0.75567170     0.08200
H1799       H  0.34139022  0.93507888  0.78736601     0.08200
H1800       H  0.38443018  0.95659525  0.77544242     0.05000
C1801       C  0.29634281  0.01093600  0.85346998    -0.20800
C1802       C  0.27700773  0.00657058  0.88422118    -0.07400
C1803       C  0.26382991  0.97662325  0.90400575     0.13500
C1804       C  0.26620893  0.95010413  0.88964550    -0.20900
C1805       C  0.28172635  0.95296077  0.85616456    -0.07400
C1806       C  0.29910286  0.98453943  0.83919495     0.13500
C1807       C  0.32068706  0.99084457  0.80621729    -0.24200
H1808       H  0.30808946  0.03463051  0.83966915     0.14700
H1809       H  0.25393797  0.92644314  0.90350123     0.14800
C1810       C  0.24762436  0.97265173  0.94049874    -0.24200
H1811       H  0.33477868  0.01753374  0.79921116     0.05000
H1812       H  0.30569726  0.97788357  0.78203933     0.08200
H1813       H  0.33888985  0.98265086  0.81185345     0.08200
H1814       H  0.22461981  0.97393764  0.93759604     0.08200
H1815       H  0.26479559  0.99235300  0.95908874     0.08200
H1816       H  0.24135546  0.94872313  0.95345670     0.05000
C1817       C  0.14952125  0.83242434  0.69499918    -0.20800
C1818       C  0.18132465  0.83740966  0.68721347    -0.07400
C1819       C  0.19090850  0.84054976  0.65015600     0.13500
C1820       C  0.16863848  0.83817410  0.62264460    -0.20900
C1821       C  0.13667211  0.83280563  0.63041082    -0.07400
C1822       C  0.12726515  0.83008874  0.66747939     0.13500
C1823       C  0.09364041  0.82412215  0.67864444    -0.24200
H1824       H  0.14183973  0.83030855  0.72311098     0.14700
H1825       H  0.17638264  0.84038192  0.59454317     0.14800
C1826       C  0.22475364  0.84708900  0.63899766    -0.24200
H1827       H  0.09053952  0.82257009  0.70863274     0.05000
H1828       H  0.07412009  0.80041764  0.66711675     0.08200
H1829       H  0.09019199  0.84477362  0.66897828     0.08200
H1830       H  0.22836437  0.82635628  0.64794564     0.08200
H1831       H  0.24403681  0.87057821  0.65119020     0.08200
H1832       H  0.22812156  0.84940101  0.60904996     0.05000
C1833       C  0.13893028  0.80275038  0.92101365    -0.20800
C1834       C  0.14503212  0.82988858  0.94261148    -0.07400
C1835       C  0.16419625  0.86221919  0.92821664     0.13500
C1836       C  0.17768983  0.86650260  0.89333731    -0.20900
C1837       C  0.17260756  0.83942682  0.87239744    -0.07400
C1838       C  0.15228927  0.80703075  0.88603670     0.13500
C1839       C  0.14376398  0.77687713  0.86348813    -0.24200
H1840       H  0.12234266  0.77797861  0.93083850     0.14700
H1841       H  0.19365699  0.89126388  0.88305220     0.14800
C1842       C  0.17109770  0.89248988  0.94954112    -0.24200
H1843       H  0.12534478  0.75377062  0.87728903     0.05000
H1844       H  0.16600349  0.77471484  0.85863305     0.08200
H1845       H  0.13313419  0.77853393  0.83706839     0.08200
H1846       H  0.18356336  0.89319821  0.97552371     0.08200
H1847       H  0.14798983  0.89280256  0.95501782     0.08200
H1848       H  0.18696800  0.91533538  0.93400873     0.05000
C1849       C  0.20856683  0.17721489  0.96602113    -0.20800
C1850       C  0.19131568  0.17391468  0.99857659    -0.07400
C1851       C  0.18154085  0.14574192  0.52112379     0.13500
C1852       C  0.18318876  0.11824905  0.00446433    -0.20900
C1853       C  0.20103370  0.12199935  0.97218744    -0.07400
C1854       C  0.21381842  0.15215538  0.95273802     0.13500
C1855       C  0.23431891  0.15920717  0.91865465    -0.24200
H1856       H  0.21861393  0.20000481  0.95060942     0.14700
H1857       H  0.17924294  0.09857990  0.52394964     0.14800
C1858       C  0.16826292  0.14245492  0.55911776    -0.24200
H1859       H  0.24277459  0.18441669  0.90783830     0.05000
H1860       H  0.21945575  0.14150458  0.89698957     0.08200
H1861       H  0.25677934  0.15746940  0.92453638     0.01000
H1862       H  0.14446373  0.14246079  0.55843492     0.08200
H1863       H  0.18644063  0.16322606  0.57608636     0.08200
H1864       H  0.16358473  0.11906487  0.57228764     0.05000
C1865       C  0.31501926  0.27072336  0.59356297    -0.20800
C1866       C  0.32980393  0.28825313  0.62536220    -0.07400
C1867       C  0.31824080  0.30850937  0.64075924     0.13500
C1868       C  0.28955503  0.30719326  0.62674768    -0.20900
C1869       C  0.27226869  0.28598236  0.59804362    -0.07400
C1870       C  0.28635440  0.26927697  0.57971809     0.13500
C1871       C  0.27123655  0.24968481  0.54561046    -0.24200
H1872       H  0.32431817  0.25593978  0.58107516     0.14700
H1873       H  0.27963097  0.32131849  0.63948874     0.14800
C1874       C  0.33577991  0.33133565  0.67202330    -0.24200
H1875       H  0.28747387  0.24142543  0.53291166     0.05000
H1876       H  0.26748106  0.26517930  0.52534649     0.08200
H1877       H  0.24730213  0.22738592  0.55197676     0.08200
H1878       H  0.36229535  0.34740676  0.66514929     0.08200
H1879       H  0.33327071  0.31694734  0.69698771     0.08200
H1880       H  0.32527555  0.34757053  0.67808670     0.05000
C1881       C  0.14160204  0.35120023  0.65252064    -0.20800
C1882       C  0.15672501  0.35372809  0.68636229    -0.07400
C1883       C  0.17546454  0.33764048  0.69114162     0.13500
C1884       C  0.17835249  0.31941992  0.66225930    -0.20900
C1885       C  0.16320905  0.31686339  0.62840978    -0.07400
C1886       C  0.14448583  0.33299319  0.62363178     0.13500
C1887       C  0.12645342  0.33014347  0.58859286    -0.24200
H1888       H  0.12667790  0.36287879  0.64893641     0.14700
H1889       H  0.19329253  0.30775533  0.66585661     0.14800
C1890       C  0.19351782  0.34059114  0.72619167    -0.24200
H1891       H  0.11118013  0.34228756  0.59045511     0.05000
H1892       H  0.10974496  0.30370539  0.58204647     0.08200
H1893       H  0.14435474  0.34220296  0.56610979     0.08200
H1894       H  0.17563375  0.32855897  0.74869806     0.08200
H1895       H  0.21018768  0.36706216  0.73267718     0.08200
H1896       H  0.20882003  0.32848432  0.72438182     0.05000
C1897       C  0.18239306  0.36570570  0.89095130    -0.20800
C1898       C  0.15334806  0.34479220  0.87133009    -0.07400
C1899       C  0.13085018  0.31351875  0.88589229     0.13500
C1900       C  0.13741619  0.30478475  0.91996204    -0.20900
C1901       C  0.16663744  0.32549640  0.93938038    -0.07400
C1902       C  0.18920968  0.35674825  0.92481210     0.13500
C1903       C  0.22053717  0.38088827  0.94423021    -0.24200
H1904       H  0.19992684  0.38969983  0.87995253     0.14700
H1905       H  0.11985211  0.28076034  0.93093868     0.14800
C1906       C  0.10025345  0.28872467  0.86585716    -0.24200
H1907       H  0.23450460  0.40447397  0.92897782     0.05000
H1908       H  0.23713845  0.37038121  0.94750266     0.08200
H1909       H  0.21434852  0.38679959  0.97128289     0.08200
H1910       H  0.10740324  0.28270162  0.83942843     0.08200
H1911       H  0.08339174  0.29859586  0.86106275     0.08200
H1912       H  0.08614386  0.26530210  0.88134930     0.05000
C1913       C  0.07179256  0.20025879  0.47331987    -0.20800
C1914       C  0.08060040  0.20745441  0.51027582    -0.07400
C1915       C  0.07067383  0.23370202  0.01121078     0.13500
C1916       C  0.03988170  0.22684932  0.99752837    -0.20900
C1917       C  0.01970925  0.19811919  0.97744613    -0.07400
C1918       C  0.03142943  0.17588119  0.97034906     0.13500
C1919       C  0.03331183  0.18657381  0.42018408    -0.24200
H1920       H  0.08957979  0.20046996  0.45425215     0.14700
H1921       H  0.03137138  0.24423091  0.00290132     0.14800
C1922       C  0.09097432  0.26544199  0.03183616    -0.24200
H1923       H  0.05463190  0.18802295  0.40513716     0.05000
H1924       H  0.00599779  0.14949233  0.92207901     0.08200
H1925       H  0.01207048  0.16125461  0.41662151     0.08200
H1926       H  0.11524741  0.28056840  0.01838091     0.08200
H1927       H  0.07008337  0.19512315  0.58656079     0.08200
H1928       H  0.07861340  0.28053856  0.03299151     0.05000
C1929       C  0.97939676  0.29223043  0.85356516    -0.20800
C1930       C  0.98531983  0.27449916  0.88053652    -0.07400
C1931       C  0.01681646  0.28910354  0.89746098     0.13500
C1932       C  0.04211357  0.31965166  0.88493485    -0.20900
C1933       C  0.03757964  0.33477915  0.85426851    -0.07400
C1934       C  0.00531457  0.32204220  0.83978699     0.13500
C1935       C  0.99808536  0.33967713  0.80985582    -0.24200
H1936       H  0.95488288  0.28186125  0.84187968     0.14700
H1937       H  0.06651997  0.33003408  0.89692062     0.14800
C1938       C  0.02436775  0.27249447  0.92830332    -0.24200
H1939       H  0.97115508  0.32794759  0.80432558     0.05000
H1940       H  0.01015788  0.33898602  0.78424147     0.08200
H1941       H  0.00708207  0.36571275  0.81781603     0.08200
H1942       H  0.02381505  0.24980510  0.91841583     0.08200
H1943       H  0.00600634  0.26610367  0.95040983     0.08200
H1944       H  0.04933104  0.28865075  0.93994279     0.05000
C1945       C  0.61541974  0.13970071  0.68366478    -0.20800
C1946       C  0.63209328  0.12852736  0.66110704    -0.07400
C1947       C  0.61722874  0.11354465  0.62736368     0.13500
C1948       C  0.58683198  0.11056887  0.61742567    -0.20900
C1949       C  0.56980402  0.12112231  0.64014369    -0.07400
C1950       C  0.58439739  0.13583667  0.67400418     0.13500
C1951       C  0.56773025  0.14743940  0.70052354    -0.24200
H1952       H  0.62642641  0.15100623  0.70941160     0.14700
H1953       H  0.57579168  0.09884714  0.59186570     0.14800
C1954       C  0.63262065  0.10027051  0.60101955    -0.24200
H1955       H  0.58348688  0.15957465  0.72460962     0.05000
H1956       H  0.54446974  0.12607582  0.71064009     0.08200
H1957       H  0.56242747  0.16567810  0.68716216     0.08200
H1958       H  0.65730959  0.12036079  0.59229585     0.08200
H1959       H  0.63471648  0.07981564  0.61386429     0.08200
H1960       H  0.61753538  0.09008049  0.57605076     0.05000
C1961       C  0.66820027  0.03410758  0.79147214    -0.20800
C1962       C  0.66298349  0.05123410  0.76325268    -0.07400
C1963       C  0.63136272  0.03728041  0.74668988     0.13500
C1964       C  0.60517043  0.00836260  0.76114104    -0.20900
C1965       C  0.60937359  0.99375744  0.79244764    -0.07400
C1966       C  0.64162054  0.00564925  0.80667334     0.13500
C1967       C  0.64816144  0.98876355  0.83799681    -0.24200
H1968       H  0.69271029  0.04408521  0.80305694     0.14700
H1969       H  0.58061402  0.99885113  0.74978682     0.14800
C1970       C  0.62465491  0.05282262  0.71410013    -0.24200
H1971       H  0.67505527  0.99957332  0.84318872     0.05000
H1972       H  0.63785856  0.96216019  0.83178207     0.08200
H1973       H  0.63693465  0.99152548  0.86330336     0.08200
H1974       H  0.64239833  0.05657635  0.69201369     0.08200
H1975       H  0.62672495  0.07674168  0.72172384     0.08200
H1976       H  0.59929311  0.03704494  0.70325114     0.05000
C1977       C  0.81388971  0.15700706  0.85891359    -0.20800
C1978       C  0.84704931  0.16658824  0.85097564    -0.07400
C1979       C  0.85737490  0.17312431  0.81412175     0.13500
C1980       C  0.83449602  0.16936658  0.78678976    -0.20900
C1981       C  0.80127342  0.15942112  0.79462232    -0.07400
C1982       C  0.79097211  0.15319990  0.83150486     0.13500
C1983       C  0.75569496  0.14157337  0.84238839    -0.24200
H1984       H  0.80569524  0.15225989  0.88693825     0.14700
H1985       H  0.84274748  0.17423840  0.75877866     0.14800
C1986       C  0.89267584  0.18500299  0.80310159    -0.24200
H1987       H  0.75189096  0.13705802  0.87210766     0.05000
H1988       H  0.73884075  0.11803953  0.82839302     0.08200
H1989       H  0.74899166  0.16062296  0.83520652     0.08200
H1990       H  0.89943850  0.16588446  0.80966667     0.08200
H1991       H  0.90948385  0.20834253  0.81745435     0.08200
H1992       H  0.89650107  0.19000082  0.77345721     0.05000
C1993       C  0.84017431  0.19248990  0.55696978    -0.20800
C1994       C  0.83946727  0.16580267  0.53901098    -0.07400
C1995       C  0.82284035  0.13399216  0.55528963     0.13500
C1996       C  0.80895956  0.13022184  0.58989294    -0.20900
C1997       C  0.80969146  0.15690117  0.60798051    -0.07400
C1998       C  0.82529578  0.18853312  0.59099770     0.13500
C1999       C  0.82687468  0.21856401  0.60837585    -0.24200
H2000       H  0.85337549  0.21686771  0.54481936     0.14700
H2001       H  0.79589372  0.10579338  0.60210003     0.14800
C2002       C  0.81851938  0.10364935  0.53593910    -0.24200
H2003       H  0.84240757  0.24127566  0.59238369     0.05000
H2004       H  0.83749788  0.22211346  0.63611419     0.08200
H2005       H  0.80200828  0.21611758  0.60946245     0.08200
H2006       H  0.84618570  0.10684335  0.03422573     0.08200
H2007       H  0.81151068  0.10347825  0.00804255     0.08200
H2008       H  0.80133625  0.08060650  0.55073752     0.05000
C2009       C  0.94150173  0.67884727  0.59123696    -0.20800
C2010       C  0.94452926  0.66356461  0.62263988    -0.07400
C2011       C  0.97627977  0.67597439  0.63871862     0.13500
C2012       C  0.00308625  0.70550632  0.62550241    -0.20900
C2013       C  0.99880566  0.72294672  0.59694562    -0.07400
C2014       C  0.96814751  0.70833513  0.57819554     0.13500
C2015       C  0.96318073  0.72363374  0.54433311    -0.24200
H2016       H  0.91750378  0.66913373  0.57839154     0.14700
H2017       H  0.02698937  0.71585033  0.63869161     0.14800
C2018       C  0.98210200  0.65843574  0.66992048    -0.24200
H2019       H  0.93896012  0.70715803  0.53132203     0.05000
H2020       H  0.98271179  0.72828270  0.52416664     0.08200
H2021       H  0.96385839  0.74707420  0.55110875     0.08200
H2022       H  0.97282178  0.63218783  0.66269898     0.08200
H2023       H  0.96953820  0.65986676  0.69479634     0.08200
H2024       H  0.00881323  0.66972812  0.67648544     0.05000
C2025       C  0.92099544  0.81193162  0.49444458    -0.20800
C2026       C  0.90878984  0.79326114  0.96622236    -0.07400
C2027       C  0.92520380  0.77795573  0.94988372     0.13500
C2028       C  0.95493304  0.78276351  0.96485380    -0.20900
C2029       C  0.96965560  0.80292084  0.99546726    -0.07400
C2030       C  0.95141220  0.81780404  0.50922190     0.13500
C2031       C  0.96716653  0.84334809  0.53863738    -0.24200
H2032       H  0.90946854  0.82544583  0.50491955     0.14700
H2033       H  0.96664496  0.77022518  0.95233274     0.14800
C2034       C  0.91126424  0.75543498  0.91742385    -0.24200
H2035       H  0.95207186  0.85498975  0.54539198     0.05000
H2036       H  0.99181074  0.86324822  0.52953710     0.08200
H2037       H  0.96974054  0.83161947  0.56379815     0.08200
H2038       H  0.90919767  0.76932581  0.89396548     0.08200
H2039       H  0.88662715  0.73413723  0.92417805     0.08200
H2040       H  0.92729484  0.74533212  0.90879029     0.05000
C2041       C  0.82160837  0.67152887  0.78249248    -0.20800
C2042       C  0.82624156  0.64448887  0.79024036    -0.07400
C2043       C  0.82864729  0.63738653  0.82734805     0.13500
C2044       C  0.82661905  0.65733280  0.85490328    -0.20900
C2045       C  0.82225586  0.68454677  0.84710402    -0.07400
C2046       C  0.81953979  0.69143827  0.81000902     0.13500
C2047       C  0.81384262  0.71931408  0.79874258    -0.24200
H2048       H  0.81972008  0.67739111  0.75437756     0.14700
H2049       H  0.82844577  0.65146334  0.88301335     0.14800
C2050       C  0.83385608  0.60920111  0.83857532    -0.24200
H2051       H  0.81188828  0.72070930  0.76877416     0.05000
H2052       H  0.83484534  0.74324773  0.80782257     0.08200
H2053       H  0.79037624  0.71562295  0.81068344     0.08200
H2054       H  0.81282847  0.58546688  0.82906545     0.08200
H2055       H  0.83542657  0.60753029  0.86855848     0.08200
H2056       H  0.85731423  0.61268074  0.82695154     0.05000
C2057       C  0.79441243  0.64858747  0.55046476    -0.20800
C2058       C  0.82086257  0.67595687  0.53388890    -0.07400
C2059       C  0.85185213  0.69261216  0.55217673     0.13500
C2060       C  0.85517663  0.68143880  0.58644379    -0.20900
C2061       C  0.82870993  0.65404086  0.60299463    -0.07400
C2062       C  0.79776196  0.63733466  0.58463858     0.13500
C2063       C  0.76780834  0.60767725  0.60057024    -0.24200
H2064       H  0.77055074  0.63641656  0.53704955     0.14700
H2065       H  0.87905581  0.69353544  0.59983283     0.14800
C2066       C  0.88194116  0.72184530  0.53586905    -0.24200
H2067       H  0.74552393  0.59996254  0.58357105     0.05000
H2068       H  0.76260613  0.61350726  0.62817141     0.08200
H2069       H  0.77154837  0.58602913  0.60159199     0.08200
H2070       H  0.88027342  0.74552411  0.03776558     0.08200
H2071       H  0.88910710  0.71886575  0.00959089     0.08200
H2072       H  0.90427875  0.72946988  0.55277881     0.05000
C2073       C  0.15697021  0.69780840  0.79375679    -0.20800
C2074       C  0.15183820  0.68919552  0.83075128    -0.07400
C2075       C  0.17431443  0.71136465  0.85654231     0.13500
C2076       C  0.20050885  0.74192289  0.84467071    -0.20900
C2077       C  0.20454100  0.75140296  0.80772848    -0.07400
C2078       C  0.18273053  0.72838249  0.78182785     0.13500
C2079       C  0.18578928  0.73543752  0.74151888    -0.24200
H2080       H  0.14023245  0.68051290  0.77380832     0.14700
H2081       H  0.21697890  0.75916059  0.86479568     0.14800
C2082       C  0.16995463  0.70384845  0.89666808    -0.24200
H2083       H  0.16786341  0.71365476  0.72557461     0.05000
H2084       H  0.21097200  0.74208550  0.73211110     0.08200
H2085       H  0.18060925  0.75572994  0.73536862     0.08200
H2086       H  0.17245121  0.68186398  0.90263246     0.08200
H2087       H  0.14520680  0.69916927  0.90546783     0.08200
H2088       H  0.18883975  0.72469102  0.91300870     0.05000
C2089       C  0.02103663  0.69665219  0.94123767    -0.20800
C2090       C  0.04818378  0.71679854  0.96332638    -0.07400
C2091       C  0.07076256  0.70604747  0.97325611     0.13500
C2092       C  0.06681616  0.67677615  0.95901916    -0.20900
C2093       C  0.04086606  0.65733778  0.93549475    -0.07400
C2094       C  0.01668767  0.66649109  0.92774660     0.13500
C2095       C  0.98651999  0.64484272  0.90550046    -0.24200
H2096       H  0.00287375  0.70408396  0.93538490     0.14700
H2097       H  0.08485118  0.66931909  0.96566193     0.14800
C2098       C  0.09995406  0.72540577  0.99810317    -0.24200
H2099       H  0.97051742  0.65602431  0.90172040     0.05000
H2100       H  0.97171719  0.62061914  0.91926815     0.08200
H2101       H  0.99405352  0.64095788  0.87843991     0.08200
H2102       H  0.09187059  0.72854196  0.52480706     0.08200
H2103       H  0.11752554  0.74905969  0.98510383     0.08200
H2104       H  0.11388535  0.71223029  0.00345231     0.05000
C2105       C  0.14541760  0.52373995  0.80460908    -0.20800
C2106       C  0.12069563  0.49093985  0.81139019    -0.07400
C2107       C  0.09162091  0.48489071  0.83023220     0.13500
C2108       C  0.08900927  0.51155014  0.84333478    -0.20900
C2109       C  0.11385509  0.54413922  0.83719840    -0.07400
C2110       C  0.14215828  0.55048753  0.81694146     0.13500
C2111       C  0.16926176  0.58526158  0.80918176    -0.24200
H2112       H  0.16765039  0.52848768  0.79026400     0.14700
H2113       H  0.06672662  0.50692093  0.85756058     0.14800
C2114       C  0.06247603  0.45060504  0.83566546    -0.24200
H2115       H  0.19031457  0.58566431  0.79462929     0.05000
H2116       H  0.17871023  0.59891797  0.83508828     0.08200
H2117       H  0.15972955  0.59817055  0.79182146     0.08200
H2118       H  0.06878462  0.43625933  0.85494687     0.08200
H2119       H  0.05480439  0.43772370  0.80917732     0.08200
H2120       H  0.04078023  0.45122594  0.84718406     0.05000
C2121       C  0.98332438  0.64087377  0.79722943    -0.20800
C2122       C  0.99503535  0.62153664  0.78074347    -0.07400
C2123       C  0.97907613  0.60353262  0.74912179     0.13500
C2124       C  0.94838465  0.60002508  0.73950605    -0.20900
C2125       C  0.93458223  0.61604197  0.75906592    -0.07400
C2126       C  0.95333670  0.63854293  0.78666455     0.13500
C2127       C  0.94116544  0.65864114  0.80648677    -0.24200
H2128       H  0.99685271  0.65652871  0.81985264     0.14700
H2129       H  0.93504902  0.58470267  0.71647958     0.14800
C2130       C  0.99388291  0.58786792  0.72557098    -0.24200
H2131       H  0.95849019  0.67382970  0.82833945     0.05000
H2132       H  0.91685080  0.64201004  0.81917594     0.08200
H2133       H  0.93878746  0.67571608  0.78725668     0.08200
H2134       H  0.99707902  0.56934498  0.74104660     0.08200
H2135       H  0.01834913  0.60724975  0.71540894     0.08200
H2136       H  0.97805648  0.57523270  0.70167271     0.05000
C2137       C  0.83454880  0.28674739  0.67379439    -0.20800
C2138       C  0.82861936  0.30290031  0.64475636    -0.07400
C2139       C  0.79679176  0.28705176  0.62852124     0.13500
C2140       C  0.77214515  0.25617792  0.64208840    -0.20900
C2141       C  0.77815909  0.24055109  0.67156149    -0.07400
C2142       C  0.81014102  0.25610146  0.68725569     0.13500
C2143       C  0.81961855  0.24010723  0.71715544    -0.24200
H2144       H  0.85879765  0.29806888  0.68624988     0.14700
H2145       H  0.74796713  0.24402786  0.62940636     0.14800
C2146       C  0.78838574  0.30214553  0.59692858    -0.24200
H2147       H  0.84613188  0.25509472  0.72465557     0.05000
H2148       H  0.81530907  0.21560290  0.70808844     0.08200
H2149       H  0.80498832  0.23729125  0.74201067     0.08200
H2150       H  0.80494407  0.30561018  0.57365582     0.08200
H2151       H  0.79108875  0.32626371  0.60501214     0.08200
H2152       H  0.76252292  0.28617087  0.58760709     0.05000
C2153       C  0.96013360  0.34028649  0.51801643    -0.20800
C2154       C  0.93889604  0.33562633  0.54701695    -0.07400
C2155       C  0.92431294  0.30531845  0.56638224     0.13500
C2156       C  0.92775382  0.27903396  0.55321164    -0.20900
C2157       C  0.94550088  0.28232610  0.52130882    -0.07400
C2158       C  0.96373666  0.31403532  0.50488432     0.13500
C2159       C  0.98956858  0.32154524  0.97194982    -0.24200
H2160       H  0.97531514  0.36486543  0.00371614     0.14700
H2161       H  0.91446956  0.25510720  0.56648976     0.14800
C2162       C  0.90524234  0.30055798  0.60103798    -0.24200
H2163       H  0.00370395  0.34827353  0.96514118     0.05000
H2164       H  0.97593987  0.30852509  0.94710956     0.08200
H2165       H  0.00768402  0.31365765  0.97936663     0.08200
H2166       H  0.88223311  0.30119603  0.59527118     0.08200
H2167       H  0.92064391  0.32024260  0.62070411     0.08200
H2168       H  0.89822642  0.27648727  0.61416517     0.05000
C2169       C  0.88504957  0.48216937  0.62345569    -0.20800
C2170       C  0.86330734  0.45026192  0.63611772    -0.07400
C2171       C  0.83843075  0.44561594  0.66131774     0.13500
C2172       C  0.83561109  0.47302122  0.67246842    -0.20900
C2173       C  0.85740182  0.50513199  0.65962161    -0.07400
C2174       C  0.88289581  0.50961185  0.63500440     0.13500
C2175       C  0.90878402  0.54313592  0.62106974    -0.24200
H2176       H  0.90473042  0.48584157  0.60501268     0.14700
H2177       H  0.81604770  0.46923118  0.69109977     0.14800
C2178       C  0.81430409  0.41181096  0.67580854    -0.24200
H2179       H  0.92811217  0.54177450  0.60478689     0.05000
H2180       H  0.92140548  0.55995122  0.64425376     0.08200
H2181       H  0.89728193  0.55369911  0.60300996     0.08200
H2182       H  0.82748331  0.40208072  0.69240307     0.08200
H2183       H  0.80145956  0.39475943  0.65288010     0.08200
H2184       H  0.79526894  0.41238532  0.69341433     0.05000
C2185       C  0.00552723  0.36426989  0.66376491    -0.20800
C2186       C  0.98845102  0.37678834  0.68394709    -0.07400
C2187       C  0.99932483  0.38842115  0.71966180     0.13500
C2188       C  0.02908551  0.39117299  0.73200360    -0.20900
C2189       C  0.04742380  0.38138909  0.71039642    -0.07400
C2190       C  0.03488912  0.36645736  0.67658059     0.13500
C2191       C  0.05349177  0.35482606  0.65305397    -0.24200
H2192       H  0.99694382  0.35446648  0.63677792     0.14700
H2193       H  0.03843941  0.40143913  0.75860026     0.14800
C2194       C  0.98061139  0.39887783  0.74465867    -0.24200
H2195       H  0.04066223  0.34467693  0.62681905     0.05000
H2196       H  0.05583678  0.33508062  0.66729041     0.08200
H2197       H  0.07852519  0.37580636  0.64703361     0.08200
H2198       H  0.95512556  0.37797044  0.74869519     0.08200
H2199       H  0.97959679  0.42033087  0.73320114     0.08200
H2200       H  0.99250000  0.40626346  0.77180282     0.05000
C2201       C  0.99509302  0.50423766  0.51999174    -0.20800
C2202       C  0.96610022  0.47401328  0.51300193    -0.07400
C2203       C  0.96287478  0.46379186  0.97536873     0.13500
C2204       C  0.98134182  0.48697864  0.94796140    -0.20900
C2205       C  0.00548878  0.51974274  0.95601401    -0.07400
C2206       C  0.01080561  0.52935605  0.99313159     0.13500
C2207       C  0.03533020  0.56414355  0.00449824    -0.24200
H2208       H  0.00371657  0.51036685  0.54775947     0.14700
H2209       H  0.97693528  0.47928391  0.91978306     0.14800
C2210       C  0.92419061  0.43571313  0.46590006    -0.24200
H2211       H  0.03527045  0.56746555  0.03436551     0.05000
H2212       H  0.02907697  0.58183139  0.99142343     0.08200
H2213       H  0.06070860  0.57013977  0.99670488     0.08200
H2214       H  0.90263838  0.43451039  0.48013984     0.08200
H2215       H  0.92654632  0.41384727  0.47308161     0.08200
H2216       H  0.93830183  0.42570296  0.93419425     0.05000
C2217       C  0.95793521  0.48795002  0.72288751    -0.20800
C2218       C  0.97856660  0.48066812  0.70146411    -0.07400
C2219       C  0.01048834  0.48966106  0.71456502     0.13500
C2220       C  0.02065170  0.50565986  0.74818867    -0.20900
C2221       C  0.00015309  0.51337032  0.76930418    -0.07400
C2222       C  0.96784280  0.50340353  0.75673482     0.13500
C2223       C  0.94343174  0.50893285  0.77821686    -0.24200
H2224       H  0.93326444  0.48088506  0.71342218     0.14700
H2225       H  0.04534611  0.51284332  0.75767481     0.14800
C2226       C  0.03411816  0.48250157  0.69382837    -0.24200
H2227       H  0.91901765  0.49820717  0.76450487     0.05000
H2228       H  0.95248286  0.53568081  0.78156622     0.08200
H2229       H  0.93941213  0.49693817  0.80527965     0.08200
H2230       H  0.03942007  0.49481331  0.66685262     0.08200
H2231       H  0.02346666  0.45551770  0.69026998     0.08200
H2232       H  0.05805234  0.49173454  0.70825854     0.05000
C2233       C  0.84030089  0.07425077  0.95847506    -0.20800
C2234       C  0.87210094  0.08492816  0.97205070    -0.07400
C2235       C  0.87659678  0.06538103  0.99849630     0.13500
C2236       C  0.84923504  0.03530286  0.00984164    -0.20900
C2237       C  0.81727974  0.02453927  0.99613058    -0.07400
C2238       C  0.81283808  0.04494595  0.97048112     0.13500
C2239       C  0.78051326  0.03583960  0.45916138    -0.24200
H2240       H  0.83662962  0.08976550  0.93918511     0.14700
H2241       H  0.85294724  0.01999015  0.02932952     0.14800
C2242       C  0.91017127  0.07558848  0.01424647    -0.24200
H2243       H  0.78204213  0.05640788  0.44240541     0.05000
H2244       H  0.76318079  0.03170981  0.48185740     0.08200
H2245       H  0.76891716  0.01493702  0.93854143     0.08200
H2246       H  0.91911899  0.09853456  0.03032247     0.08200
H2247       H  0.92791732  0.07974306  0.99201864     0.08200
H2248       H  0.90949292  0.05637107  0.03269845     0.05000
C2249       C  0.69200124  0.01176045  0.64680351    -0.20800
C2250       C  0.70322196  0.04062129  0.62539232    -0.07400
C2251       C  0.71178728  0.03976756  0.58863767     0.13500
C2252       C  0.71305661  0.01202503  0.57610309    -0.20900
C2253       C  0.70522643  0.98496838  0.59892731    -0.07400
C2254       C  0.69315354  0.98407390  0.63407132     0.13500
C2255       C  0.68354850  0.95489843  0.65886222    -0.24200
H2256       H  0.68424255  0.01153843  0.67459326     0.14700
H2257       H  0.72122628  0.01181249  0.54855949     0.14800
C2258       C  0.72041073  0.06792153  0.56263215    -0.24200
H2259       H  0.67532804  0.95856733  0.68589298     0.05000
H2260       H  0.70502876  0.95109386  0.66300993     0.08200
H2261       H  0.66292298  0.93233448  0.64659387     0.08200
H2262       H  0.74294740  0.09042607  0.57175265     0.08200
H2263       H  0.69949927  0.07289556  0.56090235     0.08200
H2264       H  0.72531409  0.06220173  0.53482272     0.05000
C2265       C  0.80093812  0.88222493  0.96878448    -0.20800
C2266       C  0.78440365  0.87573348  0.50331668    -0.07400
C2267       C  0.76540621  0.84286807  0.51604791     0.13500
C2268       C  0.79565695  0.83275258  0.01510460    -0.20900
C2269       C  0.80215126  0.83114274  0.97804572    -0.07400
C2270       C  0.80598232  0.85698539  0.95481150     0.13500
C2271       C  0.81393061  0.85751274  0.91507117    -0.24200
H2272       H  0.80278651  0.90124915  0.95038421     0.14700
H2273       H  0.79395387  0.81374180  0.03345689     0.14800
C2274       C  0.73841807  0.83290894  0.54404741    -0.24200
H2275       H  0.81476849  0.87889810  0.90072130     0.05000
H2276       H  0.79474954  0.83464399  0.90175765     0.08200
H2277       H  0.83850512  0.85943768  0.91194089     0.08200
H2278       H  0.75699313  0.85166918  0.07287498     0.08200
H2279       H  0.74912719  0.84509602  0.57036929     0.08200
H2280       H  0.72488839  0.80584946  0.54909822     0.05000
C2281       C  0.61675676  0.93389220  0.91058921    -0.20800
C2282       C  0.60200645  0.94803561  0.93172221    -0.07400
C2283       C  0.61918357  0.96770815  0.96181875     0.13500
C2284       C  0.64856048  0.96890341  0.97293859    -0.20900
C2285       C  0.66155246  0.95168895  0.95400532    -0.07400
C2286       C  0.64703466  0.93658552  0.92055647     0.13500
C2287       C  0.66267836  0.92275648  0.89559046    -0.24200
H2288       H  0.60435397  0.92049914  0.88615674     0.14700
H2289       H  0.66034414  0.98163861  0.99788698     0.14800
C2290       C  0.60569845  0.98570421  0.98351210    -0.24200
H2291       H  0.64787290  0.91218961  0.87049881     0.05000
H2292       H  0.66496177  0.90294824  0.90931607     0.08200
H2293       H  0.68761931  0.94272950  0.88743855     0.08200
H2294       H  0.58073174  0.96789642  0.99402374     0.08200
H2295       H  0.60411750  0.00432565  0.96606824     0.08200
H2296       H  0.61146956  0.98365571  0.51874401     0.05000
C2297       C  0.55460841  0.81651506  0.79564739    -0.20800
C2298       C  0.53290976  0.78430622  0.80750909    -0.07400
C2299       C  0.50802541  0.77901700  0.83302198     0.13500
C2300       C  0.50487727  0.80603259  0.84489431    -0.20900
C2301       C  0.52651297  0.83838704  0.83270933    -0.07400
C2302       C  0.55240657  0.84361687  0.80834081     0.13500
C2303       C  0.57883947  0.87759720  0.79619899    -0.24200
H2304       H  0.57447315  0.82072420  0.77720948     0.14700
H2305       H  0.48513984  0.80174257  0.86350835     0.14800
C2306       C  0.48420558  0.74495596  0.84710606    -0.24200
H2307       H  0.59872821  0.87673813  0.78049136     0.05000
H2308       H  0.59061393  0.89348952  0.82025720     0.08200
H2309       H  0.56811808  0.88894247  0.77814796     0.08200
H2310       H  0.49764727  0.73524627  0.86326775     0.08200
H2311       H  0.47138538  0.72814697  0.82399349     0.08200
H2312       H  0.46513155  0.74507941  0.86504512     0.05000
C2313       C  0.67271790  0.73038889  0.88178283    -0.20800
C2314       C  0.65699594  0.70982559  0.85202940    -0.07400
C2315       C  0.66997678  0.69047783  0.83754841     0.13500
C2316       C  0.69992102  0.69453511  0.85118674    -0.20900
C2317       C  0.71750190  0.71803629  0.87804243    -0.07400
C2318       C  0.70302220  0.73511510  0.89468448     0.13500
C2319       C  0.71933039  0.75847530  0.92599712    -0.24200
H2320       H  0.66267639  0.74496777  0.89313291     0.14700
H2321       H  0.71041765  0.68044591  0.83965718     0.14800
C2322       C  0.65258521  0.66563340  0.80773056    -0.24200
H2323       H  0.70312956  0.76732857  0.93749675     0.05000
H2324       H  0.74249645  0.78037904  0.91677664     0.08200
H2325       H  0.72505501  0.74585708  0.94808279     0.08200
H2326       H  0.65239278  0.67807195  0.78209192     0.08200
H2327       H  0.62684726  0.64802144  0.81621295     0.08200
H2328       H  0.66504713  0.65114588  0.80182943     0.05000
C2329       C  0.63353489  0.79529336  0.64823868    -0.20800
C2330       C  0.63819212  0.80825841  0.68359952    -0.07400
C2331       C  0.66150822  0.84228261  0.68847468     0.13500
C2332       C  0.67988010  0.86172192  0.65853305    -0.20900
C2333       C  0.67554483  0.84874476  0.62321665    -0.07400
C2334       C  0.65151436  0.81489661  0.61813123     0.13500
C2335       C  0.64484200  0.79877351  0.58128829    -0.24200
H2336       H  0.61602985  0.76932936  0.64415011     0.14700
H2337       H  0.69730323  0.88770059  0.66270623     0.14800
C2338       C  0.66651602  0.85884895  0.72489084    -0.24200
H2339       H  0.62696296  0.77186555  0.58285646     0.05000
H2340       H  0.66813209  0.80191662  0.56955151     0.08200
H2341       H  0.63401472  0.80976435  0.56287354     0.08200
H2342       H  0.67786014  0.84917752  0.74435348     0.08200
H2343       H  0.64241563  0.85451794  0.73560376     0.08200
H2344       H  0.68328237  0.88597253  0.72295261     0.05000
C2345       C  0.67734497  0.81780099  0.88376797    -0.20800
C2346       C  0.64748832  0.81381029  0.87028005    -0.07400
C2347       C  0.63024711  0.82633818  0.89066704     0.13500
C2348       C  0.64227091  0.84040155  0.92470489    -0.20900
C2349       C  0.67260139  0.84535143  0.93777185    -0.07400
C2350       C  0.69058222  0.83401916  0.91671601     0.13500
C2351       C  0.72382669  0.83890260  0.92812497    -0.24200
H2352       H  0.69035270  0.80789768  0.86857546     0.14700
H2353       H  0.62883667  0.84970864  0.94008183     0.14800
C2354       C  0.60003082  0.82671127  0.87636951    -0.24200
H2355       H  0.73260422  0.82617596  0.90960874     0.05000
H2356       H  0.72238554  0.82906437  0.95599553     0.08200
H2357       H  0.74268711  0.86546575  0.92685791     0.08200
H2358       H  0.57832359  0.80143523  0.87583974     0.08200
H2359       H  0.60528808  0.83778579  0.84875695     0.08200
H2360       H  0.59312143  0.84183008  0.89361957     0.05000
C2361       C  0.27784057  0.46992813  0.85410494    -0.20800
C2362       C  0.29862117  0.46798339  0.82795539    -0.07400
C2363       C  0.28898175  0.46452079  0.79084333     0.13500
C2364       C  0.25819810  0.46099489  0.78138200    -0.20900
C2365       C  0.23635105  0.46091693  0.80762569    -0.07400
C2366       C  0.24690294  0.46640365  0.84463912     0.13500
C2367       C  0.22589811  0.46810503  0.87477144    -0.24200
H2368       H  0.28545964  0.47328265  0.88233715     0.14700
H2369       H  0.25084782  0.45745859  0.75306702     0.14800
C2370       C  0.31111783  0.46511584  0.76057937    -0.24200
H2371       H  0.23853156  0.47313013  0.90153272     0.05000
H2372       H  0.20248782  0.44427691  0.87728050     0.08200
H2373       H  0.22053017  0.48837186  0.86922333     0.08200
H2374       H  0.31399072  0.44292712  0.76208681     0.08200
H2375       H  0.33567313  0.48785421  0.76247612     0.08200
H2376       H  0.30074534  0.46501831  0.73334990     0.05000
C2377       C  0.31155789  0.34848791  0.97717059    -0.20800
C2378       C  0.28187420  0.33170044  0.95713271    -0.07400
C2379       C  0.28139096  0.34128466  0.92063797     0.13500
C2380       C  0.30910899  0.36949162  0.90694861    -0.20900
C2381       C  0.33710295  0.38805727  0.92855065    -0.07400
C2382       C  0.33912147  0.37678614  0.96336841     0.13500
C2383       C  0.36931043  0.39584824  0.98680022    -0.24200
H2384       H  0.31116856  0.34366672  0.50554782     0.14700
H2385       H  0.30840621  0.37809875  0.87971844     0.14800
C2386       C  0.25151556  0.32338793  0.89642067    -0.24200
H2387       H  0.36502853  0.38714255  0.51315291     0.05000
H2388       H  0.37381418  0.42130159  0.99110980     0.08200
H2389       H  0.39119640  0.39711199  0.97332493     0.08200
H2390       H  0.23032480  0.32502383  0.90764074     0.08200
H2391       H  0.24485932  0.29709564  0.89390941     0.08200
H2392       H  0.25624245  0.33414533  0.86862389     0.05000
C2393       C  0.47300246  0.58932343  0.85284549    -0.20800
C2394       C  0.44275790  0.57622726  0.83451436    -0.07400
C2395       C  0.43997277  0.59398441  0.80465382     0.13500
C2396       C  0.46736669  0.62459601  0.79465709    -0.20900
C2397       C  0.49781841  0.63761487  0.81299110    -0.07400
C2398       C  0.50054367  0.61914173  0.84245335     0.13500
C2399       C  0.53219089  0.62972680  0.86342514    -0.24200
H2400       H  0.47558217  0.57542403  0.87502934     0.14700
H2401       H  0.46497408  0.63831366  0.77217316     0.14800
C2402       C  0.40834006  0.58116383  0.78332220    -0.24200
H2403       H  0.52944142  0.61131221  0.88436239     0.05000
H2404       H  0.53964832  0.65319651  0.87797008     0.08200
H2405       H  0.55206711  0.63252575  0.84469550     0.08200
H2406       H  0.38762125  0.57620826  0.80189910     0.08200
H2407       H  0.40291105  0.55818208  0.76886432     0.08200
H2408       H  0.41002360  0.59921724  0.76248364     0.05000
C2409       C  0.38820428  0.35267533  0.74260699    -0.20800
C2410       C  0.37610218  0.32429092  0.76441657    -0.07400
C2411       C  0.35772818  0.32155172  0.79586225     0.13500
C2412       C  0.35492108  0.34881345  0.80671851    -0.20900
C2413       C  0.36954699  0.37844315  0.78650989    -0.07400
C2414       C  0.38385026  0.37924704  0.75241888     0.13500
C2415       C  0.39481045  0.40781486  0.72642128    -0.24200
H2416       H  0.40093205  0.35389007  0.71750711     0.14700
H2417       H  0.34315513  0.34778556  0.83246586     0.14800
C2418       C  0.34317955  0.29102161  0.81935183    -0.24200
H2419       H  0.40535660  0.40400837  0.70105664     0.05000
H2420       H  0.41390474  0.43093050  0.73891401     0.08200
H2421       H  0.37325815  0.41061768  0.71890996     0.08200
H2422       H  0.36308650  0.28631585  0.82875687     0.08200
H2423       H  0.32459039  0.26944301  0.80370674     0.08200
H2424       H  0.33064702  0.29366465  0.84370225     0.05000
C2425       C  0.69763887  0.54957020  0.67146310    -0.20800
C2426       C  0.68258752  0.52991359  0.64060750    -0.07400
C2427       C  0.69887843  0.51481398  0.62338420     0.13500
C2428       C  0.72934708  0.51994062  0.63736140    -0.20900
C2429       C  0.74415718  0.53956874  0.66829670    -0.07400
C2430       C  0.72780111  0.55461471  0.68544512     0.13500
C2431       C  0.74232435  0.57730406  0.71769687    -0.24200
H2432       H  0.68581215  0.56152502  0.68502536     0.14700
H2433       H  0.74190785  0.50875673  0.62372081     0.14800
C2434       C  0.68470064  0.49347534  0.59024633    -0.24200
H2435       H  0.72662612  0.58770879  0.72659049     0.05000
H2436       H  0.76694595  0.59841079  0.71049153     0.08200
H2437       H  0.74455993  0.56351677  0.74114779     0.08200
H2438       H  0.68198837  0.50804980  0.56794919     0.08200
H2439       H  0.66028730  0.47179392  0.59685967     0.08200
H2440       H  0.70090601  0.48403002  0.58024882     0.05000
C2441       C  0.64682567  0.62793736  0.51418864    -0.20800
C2442       C  0.65139548  0.60974625  0.54165797    -0.07400
C2443       C  0.68251622  0.62329989  0.55921286     0.13500
C2444       C  0.70919599  0.65261808  0.54601188    -0.20900
C2445       C  0.70576576  0.66847500  0.51535082    -0.07400
C2446       C  0.67372011  0.65716443  0.50063568     0.13500
C2447       C  0.67042116  0.67707988  0.97347743    -0.24200
H2448       H  0.62255380  0.61844674  0.50212677     0.14700
H2449       H  0.73349844  0.66153376  0.55781720     0.14800
C2450       C  0.68799902  0.60683112  0.59169805    -0.24200
H2451       H  0.64361042  0.66547073  0.96731213     0.05000
H2452       H  0.68295922  0.67714817  0.94791241     0.08200
H2453       H  0.67906557  0.70281530  0.98228849     0.08200
H2454       H  0.68714177  0.58363004  0.58329799     0.08200
H2455       H  0.66873383  0.60124855  0.61251436     0.08200
H2456       H  0.71236438  0.62293154  0.60459385     0.05000
C2457       C  0.54250861  0.40525375  0.66321335    -0.20800
C2458       C  0.53746710  0.41836719  0.63078248    -0.07400
C2459       C  0.50706967  0.39984502  0.61217969     0.13500
C2460       C  0.48275403  0.36971959  0.62684781    -0.20900
C2461       C  0.48723474  0.35691746  0.65981375    -0.07400
C2462       C  0.51799384  0.37489460  0.67789659     0.13500
C2463       C  0.52524656  0.36277620  0.71281514    -0.24200
H2464       H  0.56565043  0.41920922  0.67769358     0.14700
H2465       H  0.45963859  0.35619440  0.61222551     0.14800
C2466       C  0.49910643  0.41182741  0.57747488    -0.24200
H2467       H  0.55032410  0.38023897  0.72332306     0.05000
H2468       H  0.52405827  0.33871005  0.70822681     0.08200
H2469       H  0.50707454  0.36003634  0.73394553     0.08200
H2470       H  0.51697651  0.41470658  0.55591021     0.08200
H2471       H  0.49997766  0.43571665  0.58229158     0.08200
H2472       H  0.47398543  0.39423401  0.56717881     0.05000
C2473       C  0.59170393  0.61201078  0.71273142    -0.20800
C2474       C  0.61065673  0.61683509  0.68140734    -0.07400
C2475       C  0.62988493  0.64927221  0.66710737     0.13500
C2476       C  0.62724434  0.67530084  0.68262187    -0.20900
C2477       C  0.60541067  0.66957489  0.71134544    -0.07400
C2478       C  0.58857833  0.63786756  0.72771334     0.13500
C2479       C  0.56718456  0.63099262  0.76093157    -0.24200
H2480       H  0.57723796  0.58735861  0.72398496     0.14700
H2481       H  0.64108503  0.69992810  0.67115875     0.14800
C2482       C  0.65324251  0.65682348  0.63558070    -0.24200
H2483       H  0.55840514  0.60575893  0.77184601     0.05000
H2484       H  0.54509724  0.63302365  0.75410896     0.08200
H2485       H  0.58146966  0.64887205  0.78267020     0.08200
H2486       H  0.63952882  0.64501077  0.61031954     0.08200
H2487       H  0.67087956  0.64808726  0.64199621     0.08200
H2488       H  0.66791152  0.68376894  0.63006347     0.05000
C2489       C  0.52698144  0.51398685  0.97848011    -0.20800
C2490       C  0.51175772  0.50172929  0.51085255    -0.07400
C2491       C  0.47780578  0.49161924  0.51617242     0.13500
C2492       C  0.45963497  0.48971989  0.98924469    -0.20900
C2493       C  0.47214621  0.49830766  0.95364675    -0.07400
C2494       C  0.50661784  0.51104951  0.94851155     0.13500
C2495       C  0.52255906  0.52268058  0.91175948    -0.24200
H2496       H  0.55326075  0.52404904  0.97413993     0.14700
H2497       H  0.43336821  0.47967686  0.99362966     0.14800
C2498       C  0.46195756  0.48285694  0.55326893    -0.24200
H2499       H  0.54989448  0.53432313  0.91328346     0.05000
H2500       H  0.51667349  0.54133278  0.90066476     0.08200
H2501       H  0.51367582  0.50150647  0.89283298     0.08200
H2502       H  0.47232842  0.50512246  0.57072201     0.08200
H2503       H  0.46612029  0.46364352  0.56604564     0.08200
H2504       H  0.43482968  0.47293279  0.55181885     0.05000
C2505       C  0.50285465  0.52924353  0.71216838    -0.20800
C2506       C  0.50532520  0.50313000  0.69681273    -0.07400
C2507       C  0.49158401  0.47248129  0.71572034     0.13500
C2508       C  0.47755748  0.46963306  0.75007980    -0.20900
C2509       C  0.47437534  0.49543892  0.76508833    -0.07400
C2510       C  0.48722820  0.52578592  0.74570632     0.13500
C2511       C  0.48528138  0.55503437  0.76014340    -0.24200
H2512       H  0.51389032  0.55285748  0.69822248     0.14700
H2513       H  0.46720138  0.44622807  0.76441032     0.14800
C2514       C  0.49043829  0.44212225  0.69971479    -0.24200
H2515       H  0.49929348  0.57727211  0.74286021     0.05000
H2516       H  0.49574036  0.56109674  0.78801297     0.08200
H2517       H  0.45934656  0.54982498  0.76024501     0.08200
H2518       H  0.51547602  0.44491488  0.69916850     0.08200
H2519       H  0.47999236  0.43779628  0.67181951     0.08200
H2520       H  0.47458559  0.41960366  0.71600979     0.05000
loop_ 
_geom_bond_atom_site_label_1 
_geom_bond_atom_site_label_2 
_geom_bond_distance 
_geom_bond_site_symmetry_2 
_ccdc_geom_bond_type 
O1          Cr19   1.995       .  S
O1            C9   1.268       .  A
O2          Cr19   2.054       .  S
O2            C3   1.276       .  A
C3            O4   1.259       .  A
C3         C1230   1.512       .  S
O4          Cr20   1.981       .  S
O5          Cr20   2.038       .  S
O5            C6   1.274       .  A
C6            O7   1.247       .  A
C6         C1246   1.476       .  S
O7          Cr21   1.932       .  S
O8          Cr21   2.008       .  S
O8            C9   1.267       .  A
C9         C1198   1.499       .  S
O10         Cr19   2.052       .  S
O10          C18   1.275       .  A
O11         Cr19   1.975       .  S
O11          C12   1.264       .  A
C12          O13   1.270       .  A
C12        C1182   1.482       .  S
O13         Cr20   2.013       .  S
O14         Cr20   1.958       .  S
O14          C15   1.250       .  A
C15          O16   1.267       .  A
C15        C1214   1.476       .  S
O16         Cr21   2.023       .  S
O17         Cr21   1.954       .  S
O17          C18   1.257       .  A
C18        C1166   1.498       .  S
Cr19         O22   1.762       .  S
Cr20         O22   1.763       .  S
Cr21         O22   1.759       .  S
O23         Cr41   2.047       .  S
O23          C31   1.274       .  A
O24         Cr41   1.967       .  S
O24          C25   1.262       .  A
C25          O26   1.268       .  A
C25        C1121   1.466       .  S
O26         Cr42   2.012       .  S
O27         Cr42   1.950       .  S
O27          C28   1.250       .  A
C28          O29   1.268       .  A
C28        C1153   1.482       .  S
O29         Cr43   2.032       .  S
O30         Cr43   1.949       .  S
O30          C31   1.252       .  A
C31        C1102   1.487       .  S
O32         Cr41   1.977       .  S
O32          C40   1.266       .  A
O33         Cr41   2.048       .  S
O33          C34   1.276       .  A
C34          O35   1.258       .  A
C34        C1233   1.506       .  S
O35         Cr42   1.971       .  S
O36         Cr42   2.035       .  S
O36          C37   1.273       .  A
C37          O38   1.246       .  A
C37        C1249   1.476       .  S
O38         Cr43   1.933       .  S
O39         Cr43   2.015       .  S
O39          C40   1.268       .  A
C40        C1134   1.490       .  S
Cr41         O44   1.761       .  S
Cr42         O44   1.756       .  S
Cr43         O44   1.757       .  S
O45         Cr63   1.989       .  S
O45          C53   1.267       .  A
O46         Cr63   2.052       .  S
O46          C47   1.276       .  A
C47          O48   1.259       .  A
C47        C1070   1.502       .  S
O48         Cr64   1.975       .  S
O49         Cr64   2.032       .  S
O49          C50   1.273       .  A
C50          O51   1.250       .  A
C50        C1086   1.474       .  S
O51         Cr65   1.939       .  S
O52         Cr65   2.005       .  S
O52          C53   1.264       .  A
C53        C1038   1.485       .  S
O54         Cr63   2.057       .  S
O54          C62   1.277       .  A
O55         Cr63   1.965       .  S
O55          C56   1.261       .  A
C56          O57   1.268       .  A
C56        C1217   1.473       .  S
O57         Cr64   2.007       .  S
O58         Cr64   1.961       .  S
O58          C59   1.251       .  A
C59          O60   1.266       .  A
C59        C1054   1.472       .  S
O60         Cr65   2.021       .  S
O61         Cr65   1.942       .  S
O61          C62   1.251       .  A
C62        C1137   1.499       .  S
Cr63         O66   1.763       .  S
Cr64         O66   1.759       .  S
Cr65         O66   1.755       .  S
O67         Cr85   2.048       .  S
O67        C1335   1.275       .  A
O68         Cr85   1.967       .  S
O68          C69   1.261       .  A
C69          O70   1.268       .  A
C69         C993   1.466       .  S
O70         Cr86   2.011       .  S
O71       Cr1346   1.946       .  S
O71          C72   1.249       .  A
C72          O73   1.267       .  A
C72        C1025   1.482       .  S
O73         Cr87   2.031       .  S
O74         Cr87   1.940       .  S
O74          C75   1.251       .  A
C75        O1327   1.276       .  A
C75         C977   1.495   1_565  S
O76         Cr85   1.988       .  S
O76          C84   1.266       .  A
O77         Cr85   2.051       .  S
O77          C78   1.275       .  A
C78          O79   1.259       .  A
C78        C1073   1.503       .  S
O79         Cr86   1.976       .  S
O80         Cr86   2.033   1_556  S
O80        C1341   1.273       .  A
C81          O82   1.245       .  A
C81        O1340   1.274       .  A
C81        C1089   1.478       .  S
O82         Cr87   1.931       .  S
O83         Cr87   2.009       .  S
O83        C1344   1.267       .  A
C84        O1343   1.267   1_554  A
C84        C1006   1.499       .  S
Cr85         O88   1.760       .  S
Cr86       O1331   1.957       .  S
Cr86         O88   1.759       .  S
Cr87       O1348   1.755       .  S
O88       Cr1347   1.756   1_554  S
O89        Cr107   1.984       .  S
O89          C97   1.266       .  A
O90        Cr107   2.044       .  S
O90          C91   1.273       .  A
C91          O92   1.261       .  A
C91         C942   1.509       .  S
O92        Cr108   1.977       .  S
O93        Cr108   2.035       .  S
O93          C94   1.272       .  A
C94          O95   1.250       .  A
C94         C958   1.486       .  S
O95        Cr109   1.937       .  S
O96        Cr109   2.010       .  S
O96          C97   1.266       .  A
C97         C910   1.478       .  S
O98        Cr107   2.050       .  S
O98         C106   1.274       .  A
O99        Cr107   1.966       .  S
O99         C100   1.262       .  A
C100        O101   1.270       .  A
C100        C894   1.473       .  S
O101       Cr108   2.010       .  S
O102       Cr108   1.954       .  S
O102        C103   1.252       .  A
C103        O104   1.267       .  A
C103        C926   1.485       .  S
O104       Cr109   2.027       .  S
O105       Cr109   1.947       .  S
O105        C106   1.255       .  A
C106        C878   1.498       .  S
Cr107       O110   1.764       .  S
Cr108       O110   1.760       .  S
Cr109       O110   1.755       .  S
O111       Cr129   2.044       .  S
O111        C119   1.275       .  A
O112       Cr129   1.962       .  S
O112        C113   1.265       .  A
C113        O114   1.270       .  A
C113        C833   1.483       .  S
O114       Cr130   2.017       .  S
O115       Cr130   1.958       .  S
O115        C116   1.251       .  A
C116        O117   1.263       .  A
C116        C862   1.479   1_455  S
O117       Cr131   2.020       .  S
O118       Cr131   1.960       .  S
O118        C119   1.259       .  A
C119        C814   1.490       .  S
O120       Cr129   1.989       .  S
O120        C128   1.264       .  A
O121       Cr129   2.032       .  S
O121        C122   1.270       .  A
C122        O123   1.262       .  A
C122        C945   1.516       .  S
O123       Cr130   1.988       .  S
O124       Cr130   2.034   1_655  S
O124        C125   1.273   1_655  A
C125        O126   1.253       .  A
C125        C961   1.488   1_455  S
O126       Cr131   1.942       .  S
O127       Cr131   2.000       .  S
O127        C128   1.261       .  A
C128        C849   1.476       .  S
Cr129       O132   1.759       .  S
Cr130       O132   1.764       .  S
Cr131       O132   1.768       .  S
O133       Cr151   1.984       .  S
O133        C141   1.265       .  A
O134       Cr151   2.048       .  S
O134        C135   1.275       .  A
C135        O136   1.261       .  A
C135        C785   1.508       .  S
O136       Cr152   1.977       .  S
O137       Cr152   2.044       .  S
O137        C138   1.275       .  A
C138       O1399   1.244       .  A
C138       C2058   1.477       .  S
O139       Cr153   1.930   1_554  S
O139       C1398   1.245       .  A
O140      Cr1413   2.011       .  S
O140        C141   1.268       .  A
C141        C766   1.491       .  S
O142       Cr151   2.058       .  S
O142        C150   1.276       .  A
O143       Cr151   1.962       .  S
O143        C144   1.261       .  A
C144        O145   1.269       .  A
C144       C1057   1.474       .  S
O145       Cr152   2.008       .  S
O146       Cr152   1.957       .  S
O146       C1407   1.249       .  A
C147        O148   1.271   1_556  A
C147       O1406   1.249       .  A
C147       C1185   1.484   1_556  S
O148       Cr153   2.041   1_554  S
O149       Cr153   1.953       .  S
O149       C1410   1.257       .  A
C150       O1409   1.255       .  A
C150       C1009   1.500       .  S
Cr151       O154   1.764       .  S
Cr152       O154   1.763       .  S
Cr153      O1400   2.014       .  S
Cr153      O1414   1.756       .  S
O154      Cr1413   1.754       .  S
O155       Cr173   2.047       .  S
O155        C163   1.274       .  A
O156       Cr173   1.969       .  S
O156        C157   1.263       .  A
C157        O158   1.267       .  A
C157        C865   1.473       .  S
O158       Cr174   2.006       .  S
O159       Cr174   1.955       .  S
O159        C160   1.250       .  A
C160        O161   1.271       .  A
C160        C750   1.482       .  S
O161       Cr175   2.040       .  S
O162       Cr175   1.951       .  S
O162        C163   1.253       .  A
C163        C913   1.491       .  S
O164       Cr173   1.981       .  S
O164        C172   1.265       .  A
O165       Cr173   2.051       .  S
O165        C166   1.276       .  A
C166        O167   1.261       .  A
C166        C782   1.506       .  S
O167       Cr174   1.975       .  S
O168       Cr174   2.031       .  S
O168        C169   1.272       .  A
C169        O170   1.246       .  A
C169        C801   1.474       .  S
O170       Cr175   1.933       .  S
O171       Cr175   2.019       .  S
O171        C172   1.271       .  A
C172       C1169   1.502       .  S
Cr173       O176   1.762       .  S
Cr174       O176   1.761       .  S
Cr175       O176   1.756       .  S
O177       Cr195   2.054       .  S
O177        C185   1.278       .  A
O178       Cr195   1.959       .  S
O178        C179   1.260       .  A
C179        O180   1.272       .  A
C179        C702   1.478       .  S
O180       Cr196   2.022       .  S
O181       Cr196   1.947       .  S
O181        C182   1.250       .  A
C182        O183   1.267       .  A
C182        C990   1.487       .  S
O183       Cr197   2.032       .  S
O184       Cr197   1.945       .  S
O184        C185   1.251       .  A
C185        C686   1.495       .  S
O186       Cr195   1.980       .  S
O186        C194   1.265       .  A
O187       Cr195   2.050       .  S
O187        C188   1.275       .  A
C188        O189   1.261       .  A
C188        C721   1.515       .  S
O189       Cr196   1.976       .  S
O190       Cr196   2.054       .  S
O190        C191   1.277       .  A
C191        O192   1.243       .  A
C191        C737   1.481       .  S
O192       Cr197   1.928       .  S
O193       Cr197   2.010       .  S
O193        C194   1.267       .  A
C194        C881   1.489       .  S
Cr195       O198   1.761       .  S
Cr196       O198   1.758       .  S
Cr197       O198   1.755       .  S
O199       Cr217   1.978       .  S
O199        C207   1.266       .  A
O200       Cr217   2.045       .  S
O200        C201   1.273       .  A
C201        O202   1.260       .  A
C201        C718   1.514       .  S
O202       Cr218   1.977       .  S
O203       Cr218   2.036       .  S
O203        C204   1.274       .  A
C204       O1465   1.247       .  A
C204       C1994   1.472       .  S
O205       Cr219   1.937   1_554  S
O205       C1464   1.247       .  A
O206      Cr1479   2.011       .  S
O206        C207   1.266       .  A
C207        C974   1.484       .  S
O208       Cr217   2.041       .  S
O208        C216   1.273       .  A
O209       Cr217   1.960       .  S
O209        C210   1.260       .  A
C210        O211   1.270       .  A
C210        C670   1.472       .  S
O211       Cr218   2.012       .  S
O212       Cr218   1.953       .  S
O212       C1473   1.249       .  A
C213        O214   1.269   1_556  A
C213       O1472   1.247       .  A
C213        C897   1.477   1_556  S
O214       Cr219   2.031   1_554  S
O215       Cr219   1.950       .  S
O215       C1476   1.256       .  A
C216       O1475   1.257       .  A
C216        C657   1.488   1_655  S
Cr217       O220   1.763       .  S
Cr218       O220   1.760       .  S
Cr219      O1466   2.009       .  S
Cr219      O1480   1.758       .  S
O220      Cr1479   1.759       .  S
O221       Cr239   1.992       .  S
O221        C229   1.267       .  A
O222       Cr239   2.037       .  S
O222        C223   1.273       .  A
C223        O224   1.257       .  A
C223        C622   1.499       .  S
O224       Cr240   1.967       .  S
O225       Cr240   2.037       .  S
O225        C226   1.272       .  A
C226        O227   1.250       .  A
C226        C638   1.483       .  S
O227       Cr241   1.938       .  S
O228       Cr241   2.002       .  S
O228        C229   1.263       .  A
C229       C1105   1.496       .  S
O230       Cr239   2.039       .  S
O230        C238   1.274       .  A
O231       Cr239   1.967       .  S
O231        C232   1.262       .  A
C232        O233   1.268       .  A
C232        C929   1.469       .  S
O233       Cr240   2.013       .  S
O234       Cr240   1.955       .  S
O234        C235   1.250       .  A
C235        O236   1.267       .  A
C235        C673   1.475       .  S
O236       Cr241   2.021       .  S
O237       Cr241   1.948       .  S
O237        C238   1.254       .  A
C238        C846   1.483       .  S
Cr239       O242   1.759       .  S
Cr240       O242   1.758       .  S
Cr241       O242   1.753       .  S
O243       Cr261   2.047       .  S
O243       C1511   1.273       .  A
O244       Cr261   1.966       .  S
O244        C245   1.262       .  A
C245        O246   1.270       .  A
C245        C609   1.474       .  S
O246       Cr262   2.016       .  S
O247      Cr1522   1.953       .  S
O247        C248   1.252       .  A
C248        O249   1.267       .  A
C248       C1118   1.486       .  S
O249       Cr263   2.026       .  S
O250       Cr263   1.950       .  S
O250        C251   1.256       .  A
C251       O1503   1.275       .  A
C251        C590   1.498       .  S
O252       Cr261   1.984       .  S
O252        C260   1.265       .  A
O253       Cr261   2.035       .  S
O253        C254   1.273       .  A
C254        O255   1.256       .  A
C254        C625   1.499       .  S
O255       Cr262   1.970       .  S
O256       Cr262   2.031   1_556  S
O256       C1517   1.271       .  A
C257        O258   1.249       .  A
C257       O1516   1.272       .  A
C257        C641   1.484       .  S
O258       Cr263   1.933       .  S
O259       Cr263   2.006       .  S
O259       C1520   1.267       .  A
C260       O1519   1.267   1_554  A
C260        C654   1.484       .  S
Cr261       O264   1.762       .  S
Cr262      O1507   1.952       .  S
Cr262       O264   1.761       .  S
Cr263      O1524   1.752       .  S
O264      Cr1523   1.753   1_554  S
O265       Cr283   1.986       .  S
O265        C273   1.265       .  A
O266       Cr283   2.054       .  S
O266        C267   1.276       .  A
C267        O268   1.260       .  A
C267        C558   1.512       .  S
O268       Cr284   1.973       .  S
O269       Cr284   2.036       .  S
O269        C270   1.272       .  A
C270        O271   1.247       .  A
C270        C577   1.470       .  S
O271       Cr285   1.938       .  S
O272       Cr285   2.016       .  S
O272        C273   1.270       .  A
C273        C817   1.500       .  S
O274       Cr283   2.046       .  S
O274        C282   1.276       .  A
O275       Cr283   1.969       .  S
O275        C276   1.260       .  A
C276        O277   1.269       .  A
C276        C526   1.480       .  S
O277       Cr284   2.012       .  S
O278       Cr284   1.949       .  S
O278        C279   1.248       .  A
C279        O280   1.271       .  A
C279        C545   1.482       .  S
O280       Cr285   2.038       .  S
O281       Cr285   1.955       .  S
O281        C282   1.254       .  A
C282        C513   1.494       .  S
Cr283       O286   1.759       .  S
Cr284       O286   1.761       .  S
Cr285       O286   1.757       .  S
O287       Cr305   2.050       .  S
O287       C1555   1.276       .  A
O288       Cr305   1.971       .  S
O288        C289   1.261       .  A
C289        O290   1.271       .  A
C289        C753   1.484   1_455  S
O290       Cr306   2.017       .  S
O291      Cr1566   1.942       .  S
O291        C292   1.244       .  A
C292        O293   1.272       .  A
C292        C830   1.476       .  S
O293       Cr307   2.056       .  S
O294       Cr307   1.954       .  S
O294        C295   1.259   1_455  A
C295       O1547   1.276   1_655  A
C295        C769   1.500       .  S
O296       Cr305   1.986       .  S
O296        C304   1.267       .  A
O297       Cr305   2.057       .  S
O297        C298   1.278       .  A
C298        O299   1.259       .  A
C298        C561   1.514       .  S
O299       Cr306   1.971       .  S
O300       Cr306   2.048   1_556  S
O300       C1561   1.273       .  A
C301        O302   1.243       .  A
C301       O1560   1.273       .  A
C301        C574   1.472       .  S
O302       Cr307   1.930       .  S
O303       Cr307   2.018       .  S
O303       C1564   1.270       .  A
C304       O1563   1.271   1_554  A
C304        C497   1.499       .  S
Cr305       O308   1.757       .  S
Cr306      O1551   1.941       .  S
Cr306       O308   1.755       .  S
Cr307      O1568   1.760       .  S
O308      Cr1567   1.758   1_554  S
O309       Cr327   1.994       .  S
O309        C317   1.268       .  A
O310       Cr327   2.043       .  S
O310        C311   1.273       .  A
C311        O312   1.260       .  A
C311        C465   1.512       .  S
O312       Cr328   1.976       .  S
O313       Cr328   2.033       .  S
O313        C314   1.271       .  A
C314        O315   1.253       .  A
C314        C481   1.489       .  S
O315       Cr329   1.945       .  S
O316       Cr329   2.003       .  S
O316        C317   1.264       .  A
C317        C689   1.499       .  S
O318       Cr327   2.049       .  S
O318        C326   1.274       .  A
O319       Cr327   1.977       .  S
O319        C320   1.264       .  A
C320        O321   1.268       .  A
C320        C446   1.472       .  S
O321       Cr328   2.012       .  S
O322       Cr328   1.959       .  S
O322        C323   1.252       .  A
C323        O324   1.267       .  A
C323        C529   1.477       .  S
O324       Cr329   2.024       .  S
O325       Cr329   1.958       .  S
O325        C326   1.259       .  A
C326        C430   1.504       .  S
Cr327       O330   1.762       .  S
Cr328       O330   1.761       .  S
Cr329       O330   1.757       .  S
O331       Cr349   2.058       .  S
O331        C339   1.278       .  A
O332       Cr349   1.968       .  S
O332        C333   1.262       .  A
C333        O334   1.267       .  A
C333       C1022   1.465       .  S
O334       Cr350   2.009       .  S
O335       Cr350   1.961       .  S
O335        C336   1.252       .  A
C336        O337   1.270       .  A
C336        C705   1.479       .  S
O337       Cr351   2.027       .  S
O338       Cr351   1.941       .  S
O338        C339   1.250       .  A
C339       C1041   1.497       .  S
O340       Cr349   1.988       .  S
O340        C348   1.266       .  A
O341       Cr349   2.053       .  S
O341        C342   1.276       .  A
C342        O343   1.261       .  A
C342        C462   1.512       .  S
O343       Cr350   1.969       .  S
O344       Cr350   2.039       .  S
O344        C345   1.271       .  A
C345        O346   1.249       .  A
C345        C478   1.488       .  S
O346       Cr351   1.939       .  S
O347       Cr351   2.006       .  S
O347        C348   1.265       .  A
C348        C510   1.499       .  S
Cr349       O352   1.763       .  S
Cr350       O352   1.758       .  S
Cr351       O352   1.750       .  S
O353       Cr371   2.056       .  S
O353        C361   1.275       .  A
O354       Cr371   1.970       .  S
O354        C355   1.263       .  A
C355        O356   1.268       .  A
C355       C1150   1.472       .  S
O356       Cr372   2.011       .  S
O357       Cr372   1.952       .  S
O357        C358   1.249       .  A
C358        O359   1.271       .  A
C358        C606   1.482       .  S
O359       Cr373   2.035       .  S
O360       Cr373   1.952       .  S
O360        C361   1.255       .  A
C361       C1201   1.505       .  S
O362       Cr371   1.979       .  S
O362        C370   1.265       .  A
O363       Cr371   2.052       .  S
O363        C364   1.276       .  A
C364        O365   1.260       .  A
C364        C398   1.509       .  S
O365       Cr372   1.970       .  S
O366       Cr372   2.039       .  S
O366        C367   1.273       .  A
C367        O368   1.246       .  A
C367        C414   1.474       .  S
O368       Cr373   1.935       .  S
O369       Cr373   2.018       .  S
O369        C370   1.271       .  A
C370        C433   1.496       .  S
Cr371       O374   1.765       .  S
Cr372       O374   1.761       .  S
Cr373       O374   1.754       .  S
O375       Cr393   1.985       .  S
O375        C383   1.266       .  A
O376       Cr393   2.046       .  S
O376        C377   1.274       .  A
C377        O378   1.260       .  A
C377        C401   1.509       .  S
O378       Cr394   1.972       .  S
O379       Cr394   2.036       .  S
O379        C380   1.272       .  A
C380       O1641   1.246       .  A
C380       C1677   1.475       .  S
O381       Cr395   1.934   1_554  S
O381       C1640   1.246       .  A
O382      Cr1655   2.012       .  S
O382        C383   1.270       .  A
C383        C593   1.499       .  S
O384       Cr393   2.044       .  S
O384        C392   1.272       .  A
O385       Cr393   1.973       .  S
O385        C386   1.263       .  A
C386        O387   1.269       .  A
C386        C542   1.475       .  S
O387       Cr394   2.010       .  S
O388       Cr394   1.942       .  S
O388       C1649   1.250       .  A
C389        O390   1.270       .  A
C389       O1648   1.250   1_554  A
C389        C449   1.488       .  S
O390       Cr395   2.037   1_554  S
O391       Cr395   1.958       .  S
O391       C1652   1.257       .  A
C392       O1651   1.257       .  A
C392        C494   1.497   1_545  S
Cr393       O396   1.762       .  S
Cr394       O396   1.760       .  S
Cr395      O1642   2.013       .  S
Cr395      O1656   1.760       .  S
O396      Cr1655   1.755       .  S
C397        C398   1.412       .  A
C397        C402   1.412       .  A
C397        H404   1.083       .  S
C398        C399   1.417       .  A
C399        C400   1.412       .  A
C399        C406   1.507       .  S
C400        C401   1.412       .  A
C400        H405   1.083       .  S
C401        C402   1.418       .  A
C402        C403   1.508       .  S
C403        H407   1.111       .  S
C403        H408   1.111       .  S
C403        H409   1.110       .  S
C406        H410   1.109       .  S
C406        H411   1.111       .  S
C406        H412   1.111       .  S
C413        C414   1.400       .  A
C413        C418   1.401       .  A
C413        H420   1.084       .  S
C414        C415   1.420       .  A
C415        C416   1.401       .  A
C415        C422   1.511       .  S
C416        C417   1.400       .  A
C416        H421   1.084       .  S
C417       C1640   1.476       .  S
C417        C418   1.421       .  A
C418        C419   1.511       .  S
C419        H423   1.108       .  S
C419        H424   1.107       .  S
C419        H425   1.110       .  S
C422        H426   1.110       .  S
C422        H427   1.108       .  S
C422        H428   1.111       .  S
C429        C430   1.408       .  A
C429        C434   1.401       .  A
C429        H436   1.083       .  S
C430        C431   1.420       .  A
C431        C432   1.415       .  A
C431        C438   1.506       .  S
C432        C433   1.409       .  A
C432        H437   1.084       .  S
C433        C434   1.418       .  A
C434        C435   1.511       .  S
C435        H439   1.111       .  S
C435        H440   1.110       .  S
C435        H441   1.110       .  S
C438        H442   1.110       .  S
C438        H443   1.110       .  S
C438        H444   1.111       .  S
C445        C446   1.403       .  A
C445        C450   1.405       .  A
C445        H452   1.085       .  S
C446        C447   1.406       .  A
C447        C448   1.402       .  A
C447       C1714   1.506   1_554  S
C448        C449   1.413       .  A
C448       H1713   1.084   1_554  S
C449        C450   1.415       .  A
C450        C451   1.506       .  S
C451        H455   1.111       .  S
C451        H456   1.110       .  S
C451        H457   1.106       .  S
H453       C1708   1.084       .  S
C454       C1707   1.507       .  S
C454        H458   1.110       .  S
C454        H459   1.110       .  S
C454        H460   1.111       .  S
C461        C462   1.411   1_545  A
C461        C466   1.409       .  A
C461        H468   1.083       .  S
C462        C463   1.421       .  A
C463       C1724   1.415       .  A
C463        C470   1.507       .  S
C464        C465   1.412   1_565  A
C464       C1723   1.413       .  A
C464        H469   1.083       .  S
C465       C1726   1.421   1_554  A
C466       C1725   1.420       .  A
C466        C467   1.508       .  S
C467        H471   1.111       .  S
C467        H472   1.110       .  S
C467       H1733   1.109       .  S
C470        H474   1.109       .  S
C470        H475   1.110       .  S
C470       H1736   1.111       .  S
H473       C1727   1.108       .  S
H476       C1730   1.111       .  S
C477        C478   1.413       .  A
C477        C482   1.401       .  A
C477        H484   1.083       .  S
C478        C479   1.414   1_565  A
C479        C480   1.402       .  A
C479        C486   1.509       .  S
C480        C481   1.413       .  A
C480        H485   1.084       .  S
C481        C482   1.414   1_545  A
C482        C483   1.510       .  S
C483        H487   1.111       .  S
C483        H488   1.110       .  S
C483        H489   1.108       .  S
C486        H490   1.108       .  S
C486        H491   1.110       .  S
C486        H492   1.111       .  S
C493        C498   1.405       .  A
C493       C1754   1.407   1_554  A
C493        H500   1.084       .  S
C494        C495   1.420       .  A
C494       C1753   1.407       .  A
C495        C496   1.413       .  A
C495        C502   1.506       .  S
C496       C1757   1.407       .  A
C496        H501   1.084       .  S
C497        C498   1.419       .  A
C497       C1756   1.413   1_554  A
C498        C499   1.509       .  S
C499        H503   1.111       .  S
C499        H504   1.110       .  S
C499        H505   1.110       .  S
C502        H506   1.110       .  S
C502        H507   1.110   1_565  S
C502        H508   1.111       .  S
C509        C510   1.405       .  A
C509        C514   1.405       .  A
C509        H516   1.083       .  S
C510        C511   1.424       .  A
C511        C512   1.408       .  A
C511        C518   1.508       .  S
C512        C513   1.402       .  A
C512        H517   1.084       .  S
C513        C514   1.423       .  A
C514        C515   1.511       .  S
C515        H519   1.111       .  S
C515        H520   1.110       .  S
C515        H521   1.110       .  S
C518        H522   1.110       .  S
C518        H523   1.110       .  S
C518        H524   1.111       .  S
C525        C526   1.402       .  A
C525        C530   1.404       .  A
C525        H532   1.084       .  S
C526        C527   1.419       .  A
C527        C528   1.401       .  A
C527        C534   1.510       .  S
C528        C529   1.401   1_565  A
C528        H533   1.084       .  S
C529        C530   1.416   1_545  A
C530        C531   1.507   1_565  S
C531        H535   1.111   1_545  S
C531        H536   1.108       .  S
C531        H537   1.110       .  S
C534        H538   1.109       .  S
C534        H539   1.110       .  S
C534        H540   1.111       .  S
C541        C542   1.398       .  A
C541        C546   1.404   1_545  A
C541        H548   1.084       .  S
C542        C543   1.415   1_545  A
C543        C544   1.402       .  A
C543        C550   1.507       .  S
C544        C545   1.402       .  A
C544        H549   1.084       .  S
C545        C546   1.423       .  A
C546        C547   1.510       .  S
C547        H551   1.111   1_565  S
C547        H552   1.108       .  S
C547        H553   1.110       .  S
C550        H554   1.108       .  S
C550        H555   1.107       .  S
C550        H556   1.110       .  S
C557        C558   1.411       .  A
C557        C562   1.414       .  A
C557        H564   1.084       .  S
C558        C559   1.420       .  A
C559        C560   1.415       .  A
C559        C566   1.508       .  S
C560        C561   1.413       .  A
C560        H565   1.084       .  S
C561        C562   1.420       .  A
C562        C563   1.507       .  S
C563        H567   1.111       .  S
C563        H568   1.111       .  S
C563        H569   1.110       .  S
C566        H570   1.110       .  S
C566        H571   1.111       .  S
C566        H572   1.111       .  S
C573        C574   1.401       .  A
C573        C578   1.400       .  A
C573        H580   1.083       .  S
C574        C575   1.419       .  A
C575        C576   1.400       .  A
C575        C582   1.507       .  S
C576        C577   1.399       .  A
C576        H581   1.084       .  S
C577        C578   1.417       .  A
C578        C579   1.510       .  S
C579        H583   1.111       .  S
C579        H584   1.106       .  S
C579        H585   1.110       .  S
C582        H586   1.110       .  S
C582        H587   1.107       .  S
C582        H588   1.106       .  S
C589        C590   1.409       .  A
C589        C594   1.403       .  A
C589        H596   1.083       .  S
C590       C1851   1.415       .  A
C591       C1850   1.416   1_554  A
C591       C1852   1.411       .  A
C591        C598   1.506       .  S
C592        C593   1.412       .  A
C592       C1851   1.411       .  A
C592       H1857   1.083       .  S
C593        C594   1.418       .  A
C594        C595   1.510       .  S
C595        H599   1.111       .  S
C595        H600   1.110       .  S
C595        H601   1.110       .  S
H597       C1852   1.083       .  S
C598        H602   1.110       .  S
C598        H603   1.110       .  S
C598        H604   1.111       .  S
C605        C606   1.400       .  A
C605        C610   1.400       .  A
C605        H612   1.084       .  S
C606        C607   1.423       .  A
C607        C608   1.405       .  A
C607        C614   1.506       .  S
C608        C609   1.398       .  A
C608        H613   1.084       .  S
C609        C610   1.416       .  A
C610        C611   1.508       .  S
C611        H615   1.110       .  S
C611        H616   1.109       .  S
C611        H617   1.108       .  S
C614        H618   1.109       .  S
C614        H619   1.108       .  S
C614        H620   1.111       .  S
C621        C622   1.407       .  A
C621        C626   1.410       .  A
C621        H628   1.084       .  S
C622        C623   1.421       .  A
C623        C624   1.407       .  A
C623        C630   1.509       .  S
C624        C625   1.405       .  A
C624        H629   1.084       .  S
C625        C626   1.422       .  A
C626        C627   1.509       .  S
C627        H631   1.111       .  S
C627        H632   1.109       .  S
C627        H633   1.109       .  S
C630        H634   1.109       .  S
C630        H635   1.110       .  S
C630        H636   1.111       .  S
C637        C638   1.412       .  A
C637        C642   1.400       .  A
C637        H644   1.084       .  S
C638        C639   1.412       .  A
C639        C640   1.399       .  A
C639        C646   1.509       .  S
C640        C641   1.413       .  A
C640        H645   1.084       .  S
C641        C642   1.413       .  A
C642        C643   1.509       .  S
C643        H647   1.111       .  S
C643        H648   1.108       .  S
C643        H649   1.110       .  S
C646        H650   1.110       .  S
C646        H651   1.106       .  S
C646        H652   1.111       .  S
C653        C654   1.406   1_556  A
C653       C1918   1.412       .  A
C653        H660   1.084       .  S
C654       C1915   1.414       .  A
C655        C656   1.403       .  A
C655       C1914   1.418       .  A
C655        C662   1.509       .  S
C656        C657   1.407       .  A
C656        H661   1.084       .  S
C657        C658   1.412       .  A
C658       C1913   1.407       .  A
C658       C1919   1.508       .  S
C659       C1918   1.506       .  S
C659        H663   1.111       .  S
C659        H665   1.111   1_455  S
C659       H1924   1.110       .  S
C662        H666   1.110       .  S
C662        H668   1.111       .  S
C662       H1927   1.110       .  S
H664       C1919   1.108       .  S
H667       C1922   1.109       .  S
C669        C670   1.400       .  A
C669        C674   1.403   1_655  A
C669        H676   1.084       .  S
C670        C671   1.417   1_655  A
C671        C672   1.398       .  A
C671        C678   1.509       .  S
C672        C673   1.400       .  A
C672        H677   1.084       .  S
C673        C674   1.419       .  A
C674        C675   1.508   1_455  S
C675        H679   1.111       .  S
C675        H680   1.108   1_655  S
C675        H681   1.110   1_655  S
C678        H682   1.106       .  S
C678        H683   1.109       .  S
C678        H684   1.111       .  S
C685        C686   1.401       .  A
C685        C690   1.408       .  A
C685        H692   1.085       .  S
C686        C687   1.426       .  A
C687        C688   1.404       .  A
C687        C694   1.512       .  S
C688        C689   1.403       .  A
C688        H693   1.084       .  S
C689        C690   1.426       .  A
C690        C691   1.508       .  S
C691        H695   1.111       .  S
C691        H696   1.110       .  S
C691        H697   1.110       .  S
C694        H698   1.110       .  S
C694        H699   1.110       .  S
C694        H700   1.111       .  S
C701        C702   1.401       .  A
C701        C706   1.406       .  A
C701        H708   1.084       .  S
C702        C703   1.418       .  A
C703        C704   1.399       .  A
C703        C710   1.510       .  S
C704        C705   1.400   1_545  A
C704        H709   1.084   1_545  S
C705        C706   1.419   1_565  A
C706        C707   1.506   1_545  S
C707        H711   1.111   1_565  S
C707        H712   1.110       .  S
C707        H713   1.108       .  S
C710        H714   1.110       .  S
C710        H715   1.109       .  S
C710        H716   1.111       .  S
C717        C718   1.412       .  A
C717        C722   1.414       .  A
C717        H724   1.083       .  S
C718        C719   1.421       .  A
C719        C720   1.414       .  A
C719        C726   1.508       .  S
C720        C721   1.412       .  A
C720        H725   1.084       .  S
C721        C722   1.422       .  A
C722        C723   1.508       .  S
C723        H727   1.111       .  S
C723        H728   1.110       .  S
C723        H729   1.110       .  S
C726        H730   1.110       .  S
C726        H731   1.110       .  S
C726        H732   1.111       .  S
C733        C734   1.399       .  A
C733        C738   1.402       .  A
C733        H740   1.082       .  S
C734       C1464   1.479       .  S
C734        C735   1.422       .  A
C735        C736   1.401       .  A
C735        C742   1.509       .  S
C736        C737   1.400       .  A
C736        H741   1.086       .  S
C737        C738   1.425       .  A
C738        C739   1.511       .  S
C739        H743   1.108       .  S
C739        H744   1.110       .  S
C739        H745   1.108       .  S
C742        H748   1.111       .  S
C742       H2006   1.108       .  S
C742       H2007   1.110       .  S
H746       C2002   1.107       .  S
H747       C2002   1.110       .  S
C749        C750   1.400       .  A
C749        C754   1.403       .  A
C749        H756   1.084       .  S
C750        C751   1.420       .  A
C751        C752   1.407   1_655  A
C751        C758   1.507       .  S
C752        C753   1.401   1_455  A
C752        H757   1.084       .  S
C753        C754   1.420       .  A
C754        C755   1.508       .  S
C755        H759   1.110       .  S
C755        H760   1.110       .  S
C755        H761   1.108       .  S
C758        H762   1.111       .  S
C758        H763   1.107       .  S
C758        H764   1.111   1_655  S
C765        C770   1.411   1_556  A
C765       C2026   1.409       .  A
C765        H772   1.084   1_556  S
C766        C767   1.416       .  A
C766       C2025   1.408       .  A
C767        C768   1.402       .  A
C767        C774   1.510       .  S
C768        C769   1.409       .  A
C768        H773   1.083       .  S
C769       C2030   1.419       .  A
C770       C2029   1.418   1_554  A
C770        C771   1.506       .  S
C771        H775   1.111       .  S
C771        H776   1.110       .  S
C771        H777   1.110       .  S
C774        H778   1.109       .  S
C774        H779   1.111       .  S
C774        H780   1.111       .  S
C781        C782   1.412       .  A
C781        C786   1.413       .  A
C781        H788   1.084       .  S
C782        C783   1.419       .  A
C783        C784   1.413       .  A
C783        C790   1.508       .  S
C784        C785   1.412       .  A
C784        H789   1.084       .  S
C785        C786   1.416       .  A
C786        C787   1.507       .  S
C787        H791   1.111       .  S
C787        H792   1.109       .  S
C787        H793   1.109       .  S
C790        H794   1.105       .  S
C790        H795   1.111       .  S
C790        H796   1.110       .  S
C797        C798   1.400       .  A
C797        C802   1.399       .  A
C797        H804   1.084       .  S
C798       C1398   1.475       .  S
C798        C799   1.423       .  A
C799        C800   1.399       .  A
C799        C806   1.512       .  S
C800        C801   1.400       .  A
C800        H805   1.084       .  S
C801        C802   1.421       .  A
C802        C803   1.510       .  S
C803        H807   1.108       .  S
C803        H808   1.111       .  S
C803        H809   1.107       .  S
C806        H812   1.109       .  S
C806       H2070   1.108       .  S
C806       H2071   1.110       .  S
H810       C2066   1.108       .  S
H811       C2066   1.110       .  S
C813        C814   1.406       .  A
C813        C818   1.406       .  A
C813        H820   1.084       .  S
C814        C815   1.412       .  A
C815        C816   1.409       .  A
C815        C822   1.507       .  S
C816        C817   1.412       .  A
C816        H821   1.083       .  S
C817        C818   1.419       .  A
C818        C819   1.509       .  S
C819        H823   1.111       .  S
C819        H824   1.111       .  S
C819        H825   1.109       .  S
C822        H826   1.110       .  S
C822        H827   1.111       .  S
C822        H828   1.111       .  S
C829        C830   1.401       .  A
C829        C834   1.412       .  A
C829        H836   1.084       .  S
C830        C831   1.421       .  A
C831        C832   1.393       .  A
C831        C838   1.511       .  S
C832        C833   1.397       .  A
C832        H837   1.085       .  S
C833        C834   1.420       .  A
C834        C835   1.503   1_455  S
C835        H839   1.111       .  S
C835        H840   1.110       .  S
C835        H841   1.102       .  S
C838        H843   1.103       .  S
C838        H844   1.111       .  S
C838       H2102   1.108       .  S
H842       C2098   1.108   1_554  S
C845        C846   1.405       .  A
C845        C850   1.406       .  A
C845        H852   1.084       .  S
C846        C847   1.421       .  A
C847        C848   1.400       .  A
C847        C854   1.511       .  S
C848        C849   1.400       .  A
C848        H853   1.085       .  S
C849        C850   1.414       .  A
C850        C851   1.507       .  S
C851        H855   1.111       .  S
C851        H856   1.110       .  S
C851        H857   1.109       .  S
C854        H858   1.109       .  S
C854        H859   1.109       .  S
C854        H860   1.111       .  S
C861        C862   1.407       .  A
C861        C866   1.402       .  A
C861        H868   1.081       .  S
C862        C863   1.412       .  A
C863        C864   1.400       .  A
C863        C870   1.507       .  S
C864        C865   1.403       .  A
C864        H869   1.082       .  S
C865        C866   1.410       .  A
C866        C867   1.507       .  S
C867        H871   1.111       .  S
C867        H872   1.110       .  S
C867        H873   1.110       .  S
C870        H874   1.104       .  S
C870        H875   1.110   1_655  S
C870        H876   1.111       .  S
C877        C878   1.410       .  A
C877        C882   1.399       .  A
C877        H884   1.083       .  S
C878        C879   1.418       .  A
C879        C880   1.411       .  A
C879        C886   1.506       .  S
C880        C881   1.409       .  A
C880        H885   1.084       .  S
C881        C882   1.415       .  A
C882        C883   1.511       .  S
C883        H887   1.111       .  S
C883        H888   1.111       .  S
C883        H889   1.110       .  S
C886        H890   1.110       .  S
C886        H891   1.110       .  S
C886        H892   1.111       .  S
C893        C894   1.398       .  A
C893        C898   1.403       .  A
C893       H2160   1.084       .  S
C894        C895   1.417       .  A
C895        C896   1.400       .  A
C895        C902   1.508       .  S
C896        C897   1.400       .  A
C896        H901   1.086       .  S
C897        C898   1.421       .  A
C898       C2159   1.509   1_554  S
C899       C2158   1.508       .  S
C899        H903   1.111   1_655  S
C899        H904   1.107       .  S
C899        H905   1.109   1_655  S
H900       C2153   1.084       .  S
C902        H906   1.108       .  S
C902        H907   1.109       .  S
C902        H908   1.111       .  S
C909        C910   1.399       .  A
C909        C914   1.400       .  A
C909        H916   1.085       .  S
C910        C911   1.413       .  A
C911        C912   1.411       .  A
C911        C918   1.506       .  S
C912        C913   1.408       .  A
C912        H917   1.084       .  S
C913        C914   1.422       .  A
C914        C915   1.511       .  S
C915        H919   1.111       .  S
C915        H920   1.108       .  S
C915        H921   1.109       .  S
C918        H922   1.109       .  S
C918        H923   1.111       .  S
C918        H924   1.111       .  S
C925        C926   1.413   1_455  A
C925        C930   1.403       .  A
C925        H932   1.084   1_455  S
C926        C927   1.416       .  A
C927        C928   1.401   1_655  A
C927        C934   1.508       .  S
C928        C929   1.401       .  A
C928        H933   1.083       .  S
C929        C930   1.406       .  A
C930        C931   1.507       .  S
C931        H935   1.111       .  S
C931        H936   1.110       .  S
C931        H937   1.111       .  S
C934        H938   1.110       .  S
C934        H939   1.107       .  S
C934        H940   1.111       .  S
C941        C942   1.409       .  A
C941       C2206   1.412   1_654  A
C941        H948   1.084       .  S
C942       C2203   1.422   1_554  A
C943        C944   1.417       .  A
C943       C2202   1.423       .  A
C943       C2210   1.507       .  S
C944        C945   1.411   1_655  A
C944        H949   1.083       .  S
C945        C946   1.423       .  A
C946       C2201   1.412   1_455  A
C946        C947   1.509       .  S
C947        H951   1.111       .  S
C947        H952   1.111       .  S
C947        H953   1.110       .  S
C950       C2203   1.507       .  S
C950        H954   1.110       .  S
C950        H955   1.111       .  S
C950       H2216   1.111       .  S
H956       C2210   1.111       .  S
C957        C958   1.412       .  A
C957        C962   1.400       .  A
C957        H964   1.084       .  S
C958        C959   1.413   1_655  A
C959        C960   1.401       .  A
C959        C966   1.510       .  S
C960        C961   1.413   1_455  A
C960        H965   1.084       .  S
C961        C962   1.414       .  A
C962        C963   1.510       .  S
C963        H967   1.111       .  S
C963        H968   1.109       .  S
C963        H969   1.110       .  S
C966        H970   1.110       .  S
C966        H971   1.109       .  S
C966        H972   1.111       .  S
C973        C974   1.398       .  A
C973        C978   1.398       .  A
C973        H980   1.085       .  S
C974        C975   1.417       .  A
C975        C976   1.411       .  A
C975        C982   1.506       .  S
C976        C977   1.408       .  A
C976        H981   1.083       .  S
C977        C978   1.426       .  A
C978       C2239   1.513       .  S
C979       C2238   1.512       .  S
C979        H983   1.111       .  S
C979        H984   1.111       .  S
C979       H2245   1.109       .  S
C982        H986   1.109       .  S
C982        H987   1.110       .  S
C982        H988   1.111       .  S
H985       C2239   1.109       .  S
C989        C990   1.414       .  A
C989        C994   1.400   1_545  A
C989        H996   1.084       .  S
C990        C991   1.416       .  A
C991        C992   1.404       .  A
C991        C998   1.507       .  S
C992        C993   1.403   1_545  A
C992        H997   1.085       .  S
C993        C994   1.403       .  A
C994        C995   1.507       .  S
C995        H999   1.111       .  S
C995       H1000   1.111       .  S
C995       H1001   1.110       .  S
C998       H1002   1.107       .  S
C998       H1003   1.110       .  S
C998       H1004   1.111       .  S
C1005      C1010   1.414       .  A
C1005      C2266   1.410       .  A
C1005      H1012   1.084       .  S
C1006      C1007   1.418       .  A
C1006      C2265   1.413   1_554  A
C1007      C2268   1.403       .  A
C1007      C1014   1.509       .  S
C1008      C1009   1.410       .  A
C1008      C2267   1.399       .  A
C1008      H1013   1.083       .  S
C1009      C1010   1.418       .  A
C1010      C1011   1.505       .  S
C1011      H1015   1.111       .  S
C1011      H1016   1.110       .  S
C1011      H1017   1.110       .  S
C1014      H1019   1.110       .  S
C1014      H1020   1.111       .  S
C1014      H2278   1.110       .  S
H1018      C2274   1.110       .  S
C1021      C1022   1.402       .  A
C1021      C1026   1.401       .  A
C1021      H1028   1.085       .  S
C1022      C1023   1.405       .  A
C1023      C1024   1.400       .  A
C1023      C1030   1.507       .  S
C1024      C1025   1.412       .  A
C1024      H1029   1.084       .  S
C1025      C1026   1.414       .  A
C1026      C1027   1.507       .  S
C1027      H1031   1.111       .  S
C1027      H1032   1.104       .  S
C1027      H1033   1.110       .  S
C1030      H1034   1.110       .  S
C1030      H1035   1.110       .  S
C1030      H2296   1.111       .  S
H1036      C2290   1.111   1_554  S
C1037      C1038   1.398       .  A
C1037      C1042   1.401       .  A
C1037      H1044   1.084       .  S
C1038      C1039   1.418       .  A
C1039      C1040   1.410       .  A
C1039      C1046   1.507       .  S
C1040      C1041   1.406       .  A
C1040      H1045   1.084       .  S
C1041      C1042   1.428       .  A
C1042      C1043   1.512       .  S
C1043      H1047   1.111       .  S
C1043      H1048   1.111       .  S
C1043      H1049   1.110       .  S
C1046      H1050   1.109       .  S
C1046      H1051   1.110       .  S
C1046      H1052   1.111       .  S
C1053      C1054   1.398       .  A
C1053      C1058   1.398       .  A
C1053      H1060   1.084       .  S
C1054      C1055   1.417       .  A
C1055      C1056   1.404       .  A
C1055      C1062   1.506       .  S
C1056      C1057   1.400       .  A
C1056      H1061   1.084       .  S
C1057      C1058   1.418       .  A
C1058      C1059   1.507       .  S
C1059      H1063   1.110       .  S
C1059      H1064   1.108       .  S
C1059      H1065   1.109       .  S
C1062      H1066   1.107       .  S
C1062      H1067   1.110       .  S
C1062      H1068   1.111       .  S
C1069      C1070   1.407       .  A
C1069      C1074   1.414       .  A
C1069      H1076   1.084       .  S
C1070      C1071   1.419       .  A
C1071      C1072   1.413       .  A
C1071      C1078   1.508       .  S
C1072      C1073   1.407       .  A
C1072      H1077   1.084       .  S
C1073      C1074   1.419       .  A
C1074      C1075   1.508       .  S
C1075      H1079   1.111       .  S
C1075      H1080   1.111       .  S
C1075      H1081   1.109       .  S
C1078      H1082   1.109       .  S
C1078      H1083   1.111       .  S
C1078      H1084   1.111       .  S
C1085      C1086   1.399       .  A
C1085      C1090   1.399       .  A
C1085      H1092   1.084       .  S
C1086      C1087   1.418       .  A
C1087      C1088   1.400       .  A
C1087      C1094   1.510       .  S
C1088      C1089   1.401       .  A
C1088      H1093   1.084       .  S
C1089      C1090   1.423       .  A
C1090      C1091   1.510       .  S
C1091      H1095   1.108       .  S
C1091      H1096   1.109       .  S
C1091      H1097   1.108       .  S
C1094      H1098   1.108       .  S
C1094      H1099   1.111       .  S
C1094      H1100   1.111       .  S
C1101      C1102   1.400       .  A
C1101      C1106   1.409       .  A
C1101      H1108   1.084       .  S
C1102      C1103   1.421       .  A
C1103      C1104   1.402       .  A
C1103      C1110   1.511       .  S
C1104      C1105   1.403       .  A
C1104      H1109   1.084       .  S
C1105      C1106   1.427       .  A
C1106      C1107   1.509       .  S
C1107      H1111   1.111       .  S
C1107      H1112   1.109       .  S
C1107      H1113   1.110       .  S
C1110      H1114   1.109       .  S
C1110      H1115   1.111       .  S
C1110      H1116   1.111       .  S
C1117      C1118   1.413       .  A
C1117      C1122   1.401       .  A
C1117      H2384   1.084       .  S
C1118      C1119   1.418       .  A
C1119      C1120   1.403       .  A
C1119      C1126   1.508       .  S
C1120      C1121   1.401       .  A
C1120      H1125   1.085       .  S
C1121      C1122   1.404       .  A
C1122      C1123   1.507       .  S
C1123      H1128   1.110       .  S
C1123      H1129   1.110       .  S
C1123      H2387   1.111       .  S
H1124      C2377   1.084   1_554  S
C1126      H1130   1.108       .  S
C1126      H1131   1.110       .  S
C1126      H1132   1.111       .  S
H1127      C2383   1.111   1_554  S
C1133      C1134   1.400       .  A
C1133      C1138   1.399       .  A
C1133      H1140   1.084       .  S
C1134      C1135   1.418       .  A
C1135      C1136   1.412       .  A
C1135      C1142   1.506       .  S
C1136      C1137   1.408       .  A
C1136      H1141   1.083       .  S
C1137      C1138   1.428       .  A
C1138      C1139   1.513       .  S
C1139      H1143   1.111       .  S
C1139      H1144   1.110       .  S
C1139      H1145   1.110       .  S
C1142      H1146   1.110       .  S
C1142      H1147   1.109       .  S
C1142      H1148   1.111       .  S
C1149      C1150   1.404       .  A
C1149      C1154   1.402       .  A
C1149      H1156   1.085       .  S
C1150      C1151   1.408       .  A
C1151      C1152   1.403       .  A
C1151      C1158   1.507       .  S
C1152      C1153   1.411       .  A
C1152      H1157   1.085       .  S
C1153      C1154   1.413       .  A
C1154      C1155   1.506       .  S
C1155      H1159   1.111       .  S
C1155      H1160   1.103       .  S
C1155      H1161   1.110       .  S
C1158      H1162   1.110       .  S
C1158      H1163   1.110       .  S
C1158      H1164   1.111       .  S
C1165      C1166   1.408       .  A
C1165      C1170   1.403       .  A
C1165      H1172   1.084       .  S
C1166      C1167   1.414       .  A
C1167      C1168   1.413       .  A
C1167      C1174   1.506       .  S
C1168      C1169   1.413       .  A
C1168      H1173   1.083       .  S
C1169      C1170   1.420       .  A
C1170      C1171   1.510       .  S
C1171      H1175   1.111       .  S
C1171      H1176   1.110       .  S
C1171      H1177   1.110       .  S
C1174      H1178   1.110       .  S
C1174      H1179   1.110       .  S
C1174      H1180   1.111       .  S
C1181      C1182   1.400       .  A
C1181      C1186   1.406       .  A
C1181      H1188   1.084       .  S
C1182      C1183   1.417       .  A
C1183      C1184   1.405       .  A
C1183      C1190   1.508       .  S
C1184      C1185   1.402       .  A
C1184      H1189   1.084       .  S
C1185      C1186   1.421       .  A
C1186      C2447   1.509   1_554  S
C1187      C2446   1.507       .  S
C1187      H1191   1.111       .  S
C1187      H1192   1.107       .  S
C1187      H1193   1.109       .  S
C1190      H1194   1.108       .  S
C1190      H1195   1.109       .  S
C1190      H1196   1.110       .  S
C1197      C1198   1.412       .  A
C1197      C1202   1.414       .  A
C1197      H1204   1.084       .  S
C1198      C1199   1.415       .  A
C1199      C1200   1.402       .  A
C1199      C1206   1.508       .  S
C1200      C1201   1.411       .  A
C1200      H1205   1.083       .  S
C1201      C1202   1.418       .  A
C1202      C1203   1.506       .  S
C1203      H1207   1.111       .  S
C1203      H1208   1.110       .  S
C1203      H1209   1.110       .  S
C1206      H1210   1.110       .  S
C1206      H1211   1.109       .  S
C1206      H1212   1.111       .  S
C1213      C1214   1.401       .  A
C1213      C1218   1.399       .  A
C1213      H1220   1.084       .  S
C1214      C1215   1.419       .  A
C1215      C1216   1.403       .  A
C1215      C1222   1.508       .  S
C1216      C1217   1.400       .  A
C1216      H1221   1.084       .  S
C1217      C1218   1.416       .  A
C1218      C1219   1.508       .  S
C1219      H1223   1.111       .  S
C1219      H1224   1.108       .  S
C1219      H1225   1.108       .  S
C1222      H1226   1.108       .  S
C1222      H1227   1.109       .  S
C1222      H1228   1.111       .  S
C1229      C1234   1.413       .  A
C1229      C2490   1.407       .  A
C1229      H1236   1.083       .  S
C1230      C1231   1.423       .  A
C1230      C2489   1.408   1_554  A
C1231      C2492   1.415   1_554  A
C1231      C1238   1.508       .  S
C1232      C1233   1.406       .  A
C1232      C2491   1.411       .  A
C1232      H1237   1.084       .  S
C1233      C1234   1.423       .  A
C1234      C1235   1.509       .  S
C1235      H1239   1.111       .  S
C1235      H1240   1.111       .  S
C1235      H1241   1.109       .  S
C1238      H1242   1.109       .  S
C1238      H1243   1.108       .  S
C1238      H1244   1.111       .  S
C1245      C1246   1.401       .  A
C1245      C1250   1.401       .  A
C1245      H1252   1.084       .  S
C1246      C1247   1.421       .  A
C1247      C1248   1.397       .  A
C1247      C1254   1.512       .  S
C1248      C1249   1.398       .  A
C1248      H1253   1.084       .  S
C1249      C1250   1.422       .  A
C1250      C1251   1.510       .  S
C1251      H1255   1.108       .  S
C1251      H1256   1.110       .  S
C1251      H1257   1.108       .  S
C1254      H1258   1.108       .  S
C1254      H1259   1.111       .  S
C1254      H1260   1.111       .  S
O1261     Cr1279   1.985       .  S
O1261      C1269   1.265       .  A
O1262     Cr1279   2.050       .  S
O1262      C1263   1.276       .  A
C1263      O1264   1.258       .  A
C1263      C2490   1.506       .  S
O1264     Cr1280   1.971       .  S
O1265     Cr1280   2.042       .  S
O1265      C1266   1.274       .  A
C1266      O1267   1.246       .  A
C1266      C2506   1.479       .  S
O1267     Cr1281   1.935       .  S
O1268     Cr1281   2.009       .  S
O1268      C1269   1.267       .  A
C1269      C2458   1.496       .  S
O1270     Cr1279   2.054       .  S
O1270      C1278   1.276       .  A
O1271     Cr1279   1.962       .  S
O1271      C1272   1.261       .  A
C1272      O1273   1.270       .  A
C1272      C2442   1.478       .  S
O1273     Cr1280   2.016       .  S
O1274     Cr1280   1.953       .  S
O1274      C1275   1.249       .  A
C1275      O1276   1.269       .  A
C1275      C2474   1.479       .  S
O1276     Cr1281   2.031       .  S
O1277     Cr1281   1.951       .  S
O1277      C1278   1.257       .  A
C1278      C2426   1.504       .  S
Cr1279     O1282   1.763       .  S
Cr1280     O1282   1.761       .  S
Cr1281     O1282   1.756       .  S
O1283     Cr1301   2.049       .  S
O1283      C1291   1.273       .  A
O1284     Cr1301   1.962       .  S
O1284      C1285   1.262       .  A
C1285      O1286   1.269       .  A
C1285      C2381   1.463       .  S
O1286     Cr1302   2.012       .  S
O1287     Cr1302   1.952       .  S
O1287      C1288   1.252       .  A
C1288      O1289   1.267       .  A
C1288      C2413   1.480       .  S
O1289     Cr1303   2.024       .  S
O1290     Cr1303   1.957       .  S
O1290      C1291   1.252       .  A
C1291      C2362   1.492       .  S
O1292     Cr1301   1.972       .  S
O1292      C1300   1.267       .  A
O1293     Cr1301   2.049       .  S
O1293      C1294   1.275       .  A
C1294      O1295   1.260       .  A
C1294      C2493   1.511       .  S
O1295     Cr1302   1.983       .  S
O1296     Cr1302   2.036       .  S
O1296      C1297   1.273       .  A
C1297      O1298   1.247       .  A
C1297      C2509   1.481       .  S
O1298     Cr1303   1.936       .  S
O1299     Cr1303   2.012       .  S
O1299      C1300   1.268       .  A
C1300      C2394   1.487       .  S
Cr1301     O1304   1.765       .  S
Cr1302     O1304   1.760       .  S
Cr1303     O1304   1.759       .  S
O1305     Cr1323   1.986       .  S
O1305      C1313   1.266       .  A
O1306     Cr1323   2.051       .  S
O1306      C1307   1.276       .  A
C1307      O1308   1.258       .  A
C1307      C2330   1.507       .  S
O1308     Cr1324   1.973       .  S
O1309     Cr1324   2.044       .  S
O1309      C1310   1.276       .  A
C1310      O1311   1.246       .  A
C1310      C2346   1.479       .  S
O1311     Cr1325   1.929       .  S
O1312     Cr1325   2.010       .  S
O1312      C1313   1.266       .  A
C1313      C2298   1.485       .  S
O1314     Cr1323   2.054       .  S
O1314      C1322   1.277       .  A
O1315     Cr1323   1.961       .  S
O1315      C1316   1.260       .  A
C1316      O1317   1.271       .  A
C1316      C2477   1.475       .  S
O1317     Cr1324   2.015       .  S
O1318     Cr1324   1.955       .  S
O1318      C1319   1.248       .  A
C1319      O1320   1.267       .  A
C1319      C2314   1.476       .  S
O1320     Cr1325   2.027       .  S
O1321     Cr1325   1.941       .  S
O1321      C1322   1.251       .  A
C1322      C2397   1.496       .  S
Cr1323     O1326   1.762       .  S
Cr1324     O1326   1.757       .  S
Cr1325     O1326   1.753       .  S
O1327     Cr1345   2.053       .  S
O1328     Cr1345   1.970       .  S
O1328      C1329   1.261       .  A
C1329      O1330   1.268       .  A
C1329      C2253   1.468       .  S
O1330     Cr1346   2.013       .  S
O1331      C1332   1.253   1_554  A
C1332      O1333   1.267       .  A
C1332      C2285   1.482       .  S
O1333     Cr1347   2.029       .  S
O1334     Cr1347   1.946       .  S
O1334      C1335   1.252   1_556  A
C1335      C2237   1.494   1_564  S
O1336     Cr1345   1.984       .  S
O1336      C1344   1.266       .  A
O1337     Cr1345   2.054       .  S
O1337      C1338   1.278       .  A
C1338      O1339   1.259       .  A
C1338      C2333   1.508       .  S
O1339     Cr1346   1.972       .  S
O1340     Cr1346   2.042       .  S
C1341      O1342   1.246       .  A
C1341      C2349   1.481       .  S
O1342     Cr1347   1.937       .  S
O1343     Cr1347   2.008       .  S
C1344      C2266   1.491       .  S
Cr1345     O1348   1.760       .  S
Cr1346     O1348   1.757       .  S
O1349     Cr1367   1.985       .  S
O1349      C1357   1.267       .  A
O1350     Cr1367   2.048       .  S
O1350      C1351   1.273       .  A
C1351      O1352   1.261       .  A
C1351      C2202   1.516       .  S
O1352     Cr1368   1.980       .  S
O1353     Cr1368   2.036       .  S
O1353      C1354   1.272       .  A
C1354      O1355   1.251       .  A
C1354      C2218   1.487       .  S
O1355     Cr1369   1.939       .  S
O1356     Cr1369   2.010       .  S
O1356      C1357   1.266       .  A
C1357      C2170   1.485       .  S
O1358     Cr1367   2.047       .  S
O1358      C1366   1.274       .  A
O1359     Cr1367   1.968       .  S
O1359      C1360   1.262       .  A
C1360      O1361   1.270       .  A
C1360      C2154   1.476       .  S
O1361     Cr1368   2.012       .  S
O1362     Cr1368   1.953       .  S
O1362      C1363   1.252       .  A
C1363      O1364   1.267       .  A
C1363      C2186   1.486       .  S
O1364     Cr1369   2.028       .  S
O1365     Cr1369   1.955       .  S
O1365      C1366   1.257       .  A
C1366      C2138   1.502       .  S
Cr1367     O1370   1.764       .  S
Cr1368     O1370   1.761       .  S
Cr1369     O1370   1.758       .  S
O1371     Cr1389   2.037       .  S
O1371      C1379   1.272       .  A
O1372     Cr1389   1.952       .  S
O1372      C1373   1.263       .  A
C1373      O1374   1.269       .  A
C1373      C2093   1.476       .  S
O1374     Cr1390   2.017       .  S
O1375     Cr1390   1.960       .  S
O1375      C1376   1.253       .  A
C1376      O1377   1.263       .  A
C1376      C2122   1.480   1_455  S
O1377     Cr1391   2.019       .  S
O1378     Cr1391   1.958       .  S
O1378      C1379   1.258       .  A
C1379      C2074   1.486       .  S
O1380     Cr1389   1.980       .  S
O1380      C1388   1.264       .  A
O1381     Cr1389   2.031       .  S
O1381      C1382   1.269       .  A
C1382      O1383   1.261       .  A
C1382      C2205   1.508       .  S
O1383     Cr1390   1.985       .  S
O1384     Cr1390   2.028   1_655  S
O1384      C1385   1.272   1_655  A
C1385      O1386   1.254       .  A
C1385      C2221   1.487       .  S
O1386     Cr1391   1.946       .  S
O1387     Cr1391   2.002       .  S
O1387      C1388   1.262       .  A
C1388      C2109   1.471       .  S
Cr1389     O1392   1.762       .  S
Cr1390     O1392   1.762       .  S
Cr1391     O1392   1.767       .  S
O1393     Cr1411   1.981       .  S
O1393      C1401   1.265       .  A
O1394     Cr1411   2.045       .  S
O1394      C1395   1.274       .  A
C1395      O1396   1.260       .  A
C1395      C2045   1.511       .  S
O1396     Cr1412   1.976       .  S
O1397     Cr1412   2.035       .  S
O1397      C1398   1.273   1_556  A
O1399     Cr1413   1.927       .  S
O1400      C1401   1.269       .  A
C1401      C2026   1.492       .  S
O1402     Cr1411   2.048       .  S
O1402      C1410   1.274       .  A
O1403     Cr1411   1.965       .  S
O1403      C1404   1.262       .  A
C1404      O1405   1.269       .  A
C1404      C2317   1.474       .  S
O1405     Cr1412   2.009       .  S
O1406     Cr1412   1.954       .  S
C1407      O1408   1.269       .  A
C1407      C2445   1.480       .  S
O1408     Cr1413   2.034       .  S
O1409     Cr1413   1.943       .  S
C1410      C2269   1.493       .  S
Cr1411     O1414   1.763       .  S
Cr1412     O1414   1.761       .  S
O1415     Cr1433   2.051       .  S
O1415      C1423   1.276       .  A
O1416     Cr1433   1.971       .  S
O1416      C1417   1.263       .  A
C1417      O1418   1.268       .  A
C1417      C2125   1.474       .  S
O1418     Cr1434   2.007       .  S
O1419     Cr1434   1.952       .  S
O1419      C1420   1.249       .  A
C1420      O1421   1.272       .  A
C1420      C2010   1.483       .  S
O1421     Cr1435   2.043       .  S
O1422     Cr1435   1.947       .  S
O1422      C1423   1.253       .  A
C1423      C2173   1.497       .  S
O1424     Cr1433   1.985       .  S
O1424      C1432   1.265       .  A
O1425     Cr1433   2.049       .  S
O1425      C1426   1.275       .  A
C1426      O1427   1.261       .  A
C1426      C2042   1.511       .  S
O1427     Cr1434   1.973       .  S
O1428     Cr1434   2.043       .  S
O1428      C1429   1.273       .  A
C1429      O1430   1.242       .  A
C1429      C2061   1.476       .  S
O1430     Cr1435   1.926       .  S
O1431     Cr1435   2.016       .  S
O1431      C1432   1.270       .  A
C1432      C2429   1.498       .  S
Cr1433     O1436   1.761       .  S
Cr1434     O1436   1.761       .  S
Cr1435     O1436   1.751       .  S
O1437     Cr1455   2.052       .  S
O1437      C1445   1.276       .  A
O1438     Cr1455   1.956       .  S
O1438      C1439   1.260       .  A
C1439      O1440   1.272       .  A
C1439      C1962   1.475       .  S
O1440     Cr1456   2.017       .  S
O1441     Cr1456   1.950       .  S
O1441      C1442   1.250       .  A
C1442      O1443   1.269       .  A
C1442      C2250   1.491       .  S
O1443     Cr1457   2.037       .  S
O1444     Cr1457   1.945       .  S
O1444      C1445   1.251       .  A
C1445      C1946   1.497       .  S
O1446     Cr1455   1.980       .  S
O1446      C1454   1.264       .  A
O1447     Cr1455   2.046       .  S
O1447      C1448   1.274       .  A
C1448      O1449   1.260       .  A
C1448      C1981   1.506       .  S
O1449     Cr1456   1.974       .  S
O1450     Cr1456   2.046       .  S
O1450      C1451   1.275       .  A
C1451      O1452   1.243       .  A
C1451      C1997   1.474       .  S
O1452     Cr1457   1.925       .  S
O1453     Cr1457   2.015       .  S
O1453      C1454   1.269       .  A
C1454      C2141   1.493       .  S
Cr1455     O1458   1.763       .  S
Cr1456     O1458   1.758       .  S
Cr1457     O1458   1.752       .  S
O1459     Cr1477   1.983       .  S
O1459      C1467   1.266       .  A
O1460     Cr1477   2.044       .  S
O1460      C1461   1.274       .  A
C1461      O1462   1.260       .  A
C1461      C1978   1.507       .  S
O1462     Cr1478   1.976       .  S
O1463     Cr1478   2.044       .  S
O1463      C1464   1.275   1_556  A
O1465     Cr1479   1.936       .  S
O1466      C1467   1.266       .  A
C1467      C2234   1.485       .  S
O1468     Cr1477   2.049       .  S
O1468      C1476   1.275       .  A
O1469     Cr1477   1.967       .  S
O1469      C1470   1.262       .  A
C1470      O1471   1.271       .  A
C1470      C1930   1.480       .  S
O1471     Cr1478   2.016       .  S
O1472     Cr1478   1.950       .  S
C1473      O1474   1.270       .  A
C1473      C2157   1.482       .  S
O1474     Cr1479   2.035       .  S
O1475     Cr1479   1.954       .  S
C1476      C1917   1.493   1_655  S
Cr1477     O1480   1.762       .  S
Cr1478     O1480   1.760       .  S
O1481     Cr1499   1.998       .  S
O1481      C1489   1.269       .  A
O1482     Cr1499   2.043       .  S
O1482      C1483   1.273       .  A
C1483      O1484   1.258       .  A
C1483      C1882   1.495       .  S
O1484     Cr1500   1.973       .  S
O1485     Cr1500   2.031       .  S
O1485      C1486   1.271       .  A
C1486      O1487   1.249       .  A
C1486      C1898   1.479       .  S
O1487     Cr1501   1.933       .  S
O1488     Cr1501   2.005       .  S
O1488      C1489   1.264       .  A
C1489      C2365   1.501       .  S
O1490     Cr1499   2.042       .  S
O1490      C1498   1.275       .  A
O1491     Cr1499   1.973       .  S
O1491      C1492   1.263       .  A
C1492      O1493   1.268       .  A
C1492      C2189   1.469       .  S
O1493     Cr1500   2.010       .  S
O1494     Cr1500   1.962       .  S
O1494      C1495   1.252       .  A
C1495      O1496   1.268       .  A
C1495      C1933   1.480       .  S
O1496     Cr1501   2.028       .  S
O1497     Cr1501   1.943       .  S
O1497      C1498   1.253       .  A
C1498      C2106   1.482       .  S
Cr1499     O1502   1.760       .  S
Cr1500     O1502   1.758       .  S
Cr1501     O1502   1.754       .  S
O1503     Cr1521   2.051       .  S
O1504     Cr1521   1.958       .  S
O1504      C1505   1.261       .  A
C1505      O1506   1.271       .  A
C1505      C1869   1.474       .  S
O1506     Cr1522   2.017       .  S
O1507      C1508   1.252   1_554  A
C1508      O1509   1.266       .  A
C1508      C2378   1.483       .  S
O1509     Cr1523   2.021       .  S
O1510     Cr1523   1.946       .  S
O1510      C1511   1.255   1_556  A
C1511      C1850   1.496   1_554  S
O1512     Cr1521   1.984       .  S
O1512      C1520   1.264       .  A
O1513     Cr1521   2.045       .  S
O1513      C1514   1.273       .  A
C1514      O1515   1.258       .  A
C1514      C1885   1.496       .  S
O1515     Cr1522   1.975       .  S
O1516     Cr1522   2.040       .  S
C1517      O1518   1.250       .  A
C1517      C1901   1.479       .  S
O1518     Cr1523   1.928       .  S
O1519     Cr1523   2.014       .  S
C1520      C1914   1.495       .  S
Cr1521     O1524   1.762       .  S
Cr1522     O1524   1.760       .  S
O1525     Cr1543   1.974       .  S
O1525      C1533   1.263       .  A
O1526     Cr1543   2.052       .  S
O1526      C1527   1.276       .  A
C1527      O1528   1.259       .  A
C1527      C1818   1.511       .  S
O1528     Cr1544   1.972       .  S
O1529     Cr1544   2.034       .  S
O1529      C1530   1.272       .  A
C1530      O1531   1.247       .  A
C1530      C1837   1.469       .  S
O1531     Cr1545   1.937       .  S
O1532     Cr1545   2.014       .  S
O1532      C1533   1.270       .  A
C1533      C2077   1.494       .  S
O1534     Cr1543   2.050       .  S
O1534      C1542   1.276       .  A
O1535     Cr1543   1.960       .  S
O1535      C1536   1.260       .  A
C1536      O1537   1.268       .  A
C1536      C1786   1.471       .  S
O1537     Cr1544   2.008       .  S
O1538     Cr1544   1.951       .  S
O1538      C1539   1.249       .  A
C1539      O1540   1.271       .  A
C1539      C1805   1.483       .  S
O1540     Cr1545   2.036       .  S
O1541     Cr1545   1.954       .  S
O1541      C1542   1.254       .  A
C1542      C1773   1.493       .  S
Cr1543     O1546   1.761       .  S
Cr1544     O1546   1.759       .  S
Cr1545     O1546   1.756       .  S
O1547     Cr1565   2.049       .  S
O1548     Cr1565   1.962       .  S
O1548      C1549   1.261       .  A
C1549      O1550   1.273       .  A
C1549      C2013   1.482   1_455  S
O1550     Cr1566   2.023       .  S
O1551      C1552   1.242   1_554  A
C1552      O1553   1.270       .  A
C1552      C2090   1.470       .  S
O1553     Cr1567   2.052       .  S
O1554     Cr1567   1.949       .  S
O1554      C1555   1.257   1_556  A
C1555      C2029   1.499   1_454  S
O1556     Cr1565   1.976       .  S
O1556      C1564   1.264       .  A
O1557     Cr1565   2.056       .  S
O1557      C1558   1.276       .  A
C1558      O1559   1.257       .  A
C1558      C1821   1.512       .  S
O1559     Cr1566   1.967       .  S
O1560     Cr1566   2.046       .  S
C1561      O1562   1.244       .  A
C1561      C1834   1.472       .  S
O1562     Cr1567   1.928       .  S
O1563     Cr1567   2.015       .  S
C1564      C1757   1.487       .  S
Cr1565     O1568   1.762       .  S
Cr1566     O1568   1.756       .  S
O1569     Cr1587   1.987       .  S
O1569      C1577   1.268       .  A
O1570     Cr1587   2.041       .  S
O1570      C1571   1.273       .  A
C1571      O1572   1.261       .  A
C1571      C1725   1.512       .  S
O1572     Cr1588   1.977       .  S
O1573     Cr1588   2.037       .  S
O1573      C1574   1.273       .  A
C1574      O1575   1.251       .  A
C1574      C1741   1.485       .  S
O1575     Cr1589   1.935       .  S
O1576     Cr1589   2.005       .  S
O1576      C1577   1.265       .  A
C1577      C1949   1.496       .  S
O1578     Cr1587   2.046       .  S
O1578      C1586   1.273       .  A
O1579     Cr1587   1.972       .  S
O1579      C1580   1.262       .  A
C1580      O1581   1.269       .  A
C1580      C1706   1.470       .  S
O1581     Cr1588   2.011       .  S
O1582     Cr1588   1.958       .  S
O1582      C1583   1.250       .  A
C1583      O1584   1.266       .  A
C1583      C1789   1.473       .  S
O1584     Cr1589   2.017       .  S
O1585     Cr1589   1.948       .  S
O1585      C1586   1.255       .  A
C1586      C1690   1.495       .  S
Cr1587     O1590   1.760       .  S
Cr1588     O1590   1.759       .  S
Cr1589     O1590   1.752       .  S
O1591     Cr1609   2.051       .  S
O1591      C1599   1.276       .  A
O1592     Cr1609   1.972       .  S
O1592      C1593   1.263       .  A
C1593      O1594   1.267       .  A
C1593      C2282   1.472       .  S
O1594     Cr1610   2.007       .  S
O1595     Cr1610   1.957       .  S
O1595      C1596   1.250       .  A
C1596      O1597   1.267       .  A
C1596      C1965   1.474       .  S
O1597     Cr1611   2.021       .  S
O1598     Cr1611   1.946       .  S
O1598      C1599   1.253       .  A
C1599      C2301   1.494       .  S
O1600     Cr1609   1.999       .  S
O1600      C1608   1.269       .  A
O1601     Cr1609   2.049       .  S
O1601      C1602   1.275       .  A
C1602      O1603   1.260       .  A
C1602      C1722   1.511       .  S
O1603     Cr1610   1.969       .  S
O1604     Cr1610   2.031       .  S
O1604      C1605   1.271       .  A
C1605      O1606   1.251       .  A
C1605      C1738   1.484       .  S
O1606     Cr1611   1.939       .  S
O1607     Cr1611   2.002       .  S
O1607      C1608   1.263       .  A
C1608      C1770   1.500       .  S
Cr1609     O1612   1.760       .  S
Cr1610     O1612   1.759       .  S
Cr1611     O1612   1.753       .  S
O1613     Cr1631   2.051       .  S
O1613      C1621   1.274       .  A
O1614     Cr1631   1.968       .  S
O1614      C1615   1.262       .  A
C1615      O1616   1.268       .  A
C1615      C2410   1.469       .  S
O1616     Cr1632   2.009       .  S
O1617     Cr1632   1.956       .  S
O1617      C1618   1.251       .  A
C1618      O1619   1.269       .  A
C1618      C1866   1.478       .  S
O1619     Cr1633   2.029       .  S
O1620     Cr1633   1.951       .  S
O1620      C1621   1.255       .  A
C1621      C2461   1.501       .  S
O1622     Cr1631   1.976       .  S
O1622      C1630   1.264       .  A
O1623     Cr1631   2.054       .  S
O1623      C1624   1.276       .  A
C1624      O1625   1.261       .  A
C1624      C1658   1.515       .  S
O1625     Cr1632   1.974       .  S
O1626     Cr1632   2.034       .  S
O1626      C1627   1.272       .  A
C1627      O1628   1.246       .  A
C1627      C1674   1.472       .  S
O1628     Cr1633   1.936       .  S
O1629     Cr1633   2.009       .  S
O1629      C1630   1.268       .  A
C1630      C1693   1.492       .  S
Cr1631     O1634   1.762       .  S
Cr1632     O1634   1.760       .  S
Cr1633     O1634   1.755       .  S
O1635     Cr1653   1.977       .  S
O1635      C1643   1.265       .  A
O1636     Cr1653   2.047       .  S
O1636      C1637   1.274       .  A
C1637      O1638   1.260       .  A
C1637      C1661   1.515       .  S
O1638     Cr1654   1.978       .  S
O1639     Cr1654   2.037       .  S
O1639      C1640   1.272   1_556  A
O1641     Cr1655   1.932       .  S
O1642      C1643   1.270       .  A
C1643      C1853   1.493       .  S
O1644     Cr1653   2.041       .  S
O1644      C1652   1.272       .  A
O1645     Cr1653   1.970       .  S
O1645      C1646   1.263       .  A
C1646      O1647   1.269       .  A
C1646      C1802   1.474       .  S
O1647     Cr1654   2.014       .  S
O1648     Cr1654   1.945       .  S
C1649      O1650   1.270       .  A
C1649      C1709   1.488       .  S
O1650     Cr1655   2.040       .  S
O1651     Cr1655   1.951       .  S
C1652      C1754   1.490   1_545  S
Cr1653     O1656   1.763       .  S
Cr1654     O1656   1.763       .  S
C1657      C1658   1.411       .  A
C1657      C1662   1.413       .  A
C1657      H1664   1.084       .  S
C1658      C1659   1.421       .  A
C1659      C1660   1.415       .  A
C1659      C1666   1.507       .  S
C1660      C1661   1.412       .  A
C1660      H1665   1.083       .  S
C1661      C1662   1.421       .  A
C1662      C1663   1.508       .  S
C1663      H1667   1.111       .  S
C1663      H1668   1.110       .  S
C1663      H1669   1.110       .  S
C1666      H1670   1.109       .  S
C1666      H1671   1.110       .  S
C1666      H1672   1.111       .  S
C1673      C1674   1.399       .  A
C1673      C1678   1.399       .  A
C1673      H1680   1.084       .  S
C1674      C1675   1.419       .  A
C1675      C1676   1.400       .  A
C1675      C1682   1.511       .  S
C1676      C1677   1.401       .  A
C1676      H1681   1.084       .  S
C1677      C1678   1.421       .  A
C1678      C1679   1.510       .  S
C1679      H1683   1.108       .  S
C1679      H1684   1.107       .  S
C1679      H1685   1.110       .  S
C1682      H1686   1.110       .  S
C1682      H1687   1.107       .  S
C1682      H1688   1.111       .  S
C1689      C1690   1.408       .  A
C1689      C1694   1.397       .  A
C1689      H1696   1.083       .  S
C1690      C1691   1.416       .  A
C1691      C1692   1.411       .  A
C1691      C1698   1.506       .  S
C1692      C1693   1.411       .  A
C1692      H1697   1.083       .  S
C1693      C1694   1.417       .  A
C1694      C1695   1.511       .  S
C1695      H1699   1.111       .  S
C1695      H1700   1.110       .  S
C1695      H1701   1.110       .  S
C1698      H1702   1.110       .  S
C1698      H1703   1.110       .  S
C1698      H1704   1.111       .  S
C1705      C1706   1.404       .  A
C1705      C1710   1.405       .  A
C1705      H1712   1.085       .  S
C1706      C1707   1.404       .  A
C1707      C1708   1.401       .  A
C1708      C1709   1.414       .  A
C1709      C1710   1.415       .  A
C1710      C1711   1.507       .  S
C1711      H1715   1.111       .  S
C1711      H1716   1.110       .  S
C1711      H1717   1.105       .  S
C1714      H1718   1.110   1_556  S
C1714      H1719   1.109       .  S
C1714      H1720   1.111       .  S
C1721      C1722   1.411   1_545  A
C1721      C1726   1.411       .  A
C1721      H1728   1.083       .  S
C1722      C1723   1.420   1_556  A
C1723      C1730   1.507       .  S
C1724      C1725   1.413   1_565  A
C1724      H1729   1.083       .  S
C1726      C1727   1.508       .  S
C1727      H1731   1.111       .  S
C1727      H1732   1.110       .  S
C1730      H1734   1.110       .  S
C1730      H1735   1.110   1_554  S
C1737      C1738   1.412       .  A
C1737      C1742   1.400       .  A
C1737      H1744   1.084       .  S
C1738      C1739   1.413   1_565  A
C1739      C1740   1.399       .  A
C1739      C1746   1.510       .  S
C1740      C1741   1.413       .  A
C1740      H1745   1.083       .  S
C1741      C1742   1.413   1_545  A
C1742      C1743   1.509       .  S
C1743      H1747   1.111       .  S
C1743      H1748   1.110       .  S
C1743      H1749   1.107       .  S
C1746      H1750   1.108       .  S
C1746      H1751   1.110       .  S
C1746      H1752   1.111       .  S
C1753      C1758   1.398       .  A
C1753      H1760   1.084       .  S
C1754      C1755   1.412       .  A
C1755      C1756   1.409       .  A
C1755      C1762   1.506       .  S
C1756      H1761   1.084       .  S
C1757      C1758   1.416       .  A
C1758      C1759   1.511       .  S
C1759      H1763   1.111       .  S
C1759      H1764   1.110       .  S
C1759      H1765   1.109       .  S
C1762      H1766   1.111       .  S
C1762      H1767   1.110       .  S
C1762      H1768   1.111       .  S
C1769      C1770   1.404       .  A
C1769      C1774   1.405       .  A
C1769      H1776   1.084       .  S
C1770      C1771   1.427       .  A
C1771      C1772   1.409       .  A
C1771      C1778   1.509       .  S
C1772      C1773   1.401       .  A
C1772      H1777   1.084       .  S
C1773      C1774   1.422       .  A
C1774      C1775   1.510       .  S
C1775      H1779   1.111       .  S
C1775      H1780   1.111       .  S
C1775      H1781   1.109       .  S
C1778      H1782   1.110       .  S
C1778      H1783   1.109       .  S
C1778      H1784   1.111       .  S
C1785      C1786   1.400       .  A
C1785      C1790   1.402       .  A
C1785      H1792   1.084       .  S
C1786      C1787   1.417       .  A
C1787      C1788   1.398       .  A
C1787      C1794   1.510       .  S
C1788      C1789   1.400   1_565  A
C1788      H1793   1.084       .  S
C1789      C1790   1.417   1_545  A
C1790      C1791   1.506   1_565  S
C1791      H1795   1.111   1_545  S
C1791      H1796   1.108       .  S
C1791      H1797   1.110       .  S
C1794      H1798   1.109       .  S
C1794      H1799   1.110       .  S
C1794      H1800   1.111       .  S
C1801      C1802   1.398       .  A
C1801      C1806   1.404   1_545  A
C1801      H1808   1.084       .  S
C1802      C1803   1.415   1_545  A
C1803      C1804   1.402       .  A
C1803      C1810   1.507       .  S
C1804      C1805   1.402       .  A
C1804      H1809   1.084       .  S
C1805      C1806   1.423       .  A
C1806      C1807   1.510       .  S
C1807      H1811   1.111   1_565  S
C1807      H1812   1.108       .  S
C1807      H1813   1.109       .  S
C1810      H1814   1.108       .  S
C1810      H1815   1.107       .  S
C1810      H1816   1.110       .  S
C1817      C1818   1.412       .  A
C1817      C1822   1.414       .  A
C1817      H1824   1.083       .  S
C1818      C1819   1.420       .  A
C1819      C1820   1.413       .  A
C1819      C1826   1.508       .  S
C1820      C1821   1.412       .  A
C1820      H1825   1.084       .  S
C1821      C1822   1.419       .  A
C1822      C1823   1.507       .  S
C1823      H1827   1.111       .  S
C1823      H1828   1.110       .  S
C1823      H1829   1.110       .  S
C1826      H1830   1.110       .  S
C1826      H1831   1.111       .  S
C1826      H1832   1.111       .  S
C1833      C1834   1.402       .  A
C1833      C1838   1.401       .  A
C1833      H1840   1.084       .  S
C1834      C1835   1.418       .  A
C1835      C1836   1.400       .  A
C1835      C1842   1.507       .  S
C1836      C1837   1.398       .  A
C1836      H1841   1.084       .  S
C1837      C1838   1.417       .  A
C1838      C1839   1.509       .  S
C1839      H1843   1.111       .  S
C1839      H1844   1.105       .  S
C1839      H1845   1.110       .  S
C1842      H1846   1.110       .  S
C1842      H1847   1.103       .  S
C1842      H1848   1.106       .  S
C1849      C1850   1.409       .  A
C1849      C1854   1.398       .  A
C1849      H1856   1.083       .  S
C1851      C1858   1.506       .  S
C1852      C1853   1.411   1_554  A
C1853      C1854   1.417       .  A
C1854      C1855   1.511       .  S
C1855      H1859   1.111       .  S
C1855      H1860   1.110       .  S
C1855      H1861   1.110       .  S
C1858      H1862   1.110       .  S
C1858      H1863   1.111       .  S
C1858      H1864   1.111       .  S
C1865      C1866   1.399       .  A
C1865      C1870   1.399       .  A
C1865      H1872   1.084       .  S
C1866      C1867   1.420       .  A
C1867      C1868   1.405       .  A
C1867      C1874   1.506       .  S
C1868      C1869   1.399       .  A
C1868      H1873   1.084       .  S
C1869      C1870   1.417       .  A
C1870      C1871   1.508       .  S
C1871      H1875   1.110       .  S
C1871      H1876   1.109       .  S
C1871      H1877   1.108       .  S
C1874      H1878   1.110       .  S
C1874      H1879   1.107       .  S
C1874      H1880   1.111       .  S
C1881      C1882   1.406       .  A
C1881      C1886   1.411       .  A
C1881      H1888   1.084       .  S
C1882      C1883   1.417       .  A
C1883      C1884   1.411       .  A
C1883      C1890   1.508       .  S
C1884      C1885   1.407       .  A
C1884      H1889   1.084       .  S
C1885      C1886   1.418       .  A
C1886      C1887   1.508       .  S
C1887      H1891   1.111       .  S
C1887      H1892   1.110       .  S
C1887      H1893   1.109       .  S
C1890      H1894   1.109       .  S
C1890      H1895   1.111       .  S
C1890      H1896   1.111       .  S
C1897      C1898   1.412       .  A
C1897      C1902   1.398       .  A
C1897      H1904   1.083       .  S
C1898      C1899   1.411       .  A
C1899      C1900   1.397       .  A
C1899      C1906   1.509       .  S
C1900      C1901   1.412       .  A
C1900      H1905   1.084       .  S
C1901      C1902   1.411       .  A
C1902      C1903   1.510       .  S
C1903      H1907   1.111       .  S
C1903      H1908   1.109       .  S
C1903      H1909   1.110       .  S
C1906      H1910   1.110       .  S
C1906      H1911   1.105       .  S
C1906      H1912   1.111       .  S
C1913      C1914   1.413       .  A
C1913      H1920   1.084       .  S
C1915      C1916   1.399   1_554  A
C1915      C1922   1.509       .  S
C1916      C1917   1.407       .  A
C1916      H1921   1.084   1_556  S
C1917      C1918   1.418       .  A
C1919      H1923   1.111       .  S
C1919      H1925   1.110       .  S
C1922      H1926   1.109       .  S
C1922      H1928   1.111       .  S
C1929      C1930   1.402       .  A
C1929      C1934   1.406   1_655  A
C1929      H1936   1.084       .  S
C1930      C1931   1.419   1_655  A
C1931      C1932   1.400       .  A
C1931      C1938   1.509       .  S
C1932      C1933   1.399       .  A
C1932      H1937   1.084       .  S
C1933      C1934   1.418       .  A
C1934      C1935   1.507   1_455  S
C1935      H1939   1.111       .  S
C1935      H1940   1.107   1_655  S
C1935      H1941   1.111   1_655  S
C1938      H1942   1.109       .  S
C1938      H1943   1.109       .  S
C1938      H1944   1.111       .  S
C1945      C1946   1.405       .  A
C1945      C1950   1.411       .  A
C1945      H1952   1.083       .  S
C1946      C1947   1.426       .  A
C1947      C1948   1.401       .  A
C1947      C1954   1.512       .  S
C1948      C1949   1.402       .  A
C1948      H1953   1.082       .  S
C1949      C1950   1.423       .  A
C1950      C1951   1.508       .  S
C1951      H1955   1.111       .  S
C1951      H1956   1.110       .  S
C1951      H1957   1.110       .  S
C1954      H1958   1.110       .  S
C1954      H1959   1.111       .  S
C1954      H1960   1.111       .  S
C1961      C1962   1.401       .  A
C1961      C1966   1.405       .  A
C1961      H1968   1.084       .  S
C1962      C1963   1.419       .  A
C1963      C1964   1.398       .  A
C1963      C1970   1.510       .  S
C1964      C1965   1.399   1_545  A
C1964      H1969   1.085   1_545  S
C1965      C1966   1.418   1_565  A
C1966      C1967   1.508   1_545  S
C1967      H1971   1.111       .  S
C1967      H1972   1.110       .  S
C1967      H1973   1.108       .  S
C1970      H1974   1.110       .  S
C1970      H1975   1.109       .  S
C1970      H1976   1.111       .  S
C1977      C1978   1.410       .  A
C1977      C1982   1.414       .  A
C1977      H1984   1.084       .  S
C1978      C1979   1.420       .  A
C1979      C1980   1.411       .  A
C1979      C1986   1.508       .  S
C1980      C1981   1.408       .  A
C1980      H1985   1.084       .  S
C1981      C1982   1.421       .  A
C1982      C1983   1.508       .  S
C1983      H1987   1.111       .  S
C1983      H1988   1.111       .  S
C1983      H1989   1.110       .  S
C1986      H1990   1.110       .  S
C1986      H1991   1.111       .  S
C1986      H1992   1.111       .  S
C1993      C1994   1.398       .  A
C1993      C1998   1.399       .  A
C1993      H2000   1.083       .  S
C1994      C1995   1.419       .  A
C1995      C1996   1.400       .  A
C1995      C2002   1.509       .  S
C1996      C1997   1.399       .  A
C1996      H2001   1.086       .  S
C1997      C1998   1.423       .  A
C1998      C1999   1.511       .  S
C1999      H2003   1.108       .  S
C1999      H2004   1.110       .  S
C1999      H2005   1.108       .  S
C2002      H2008   1.111       .  S
C2009      C2010   1.399       .  A
C2009      C2014   1.402       .  A
C2009      H2016   1.084       .  S
C2010      C2011   1.422       .  A
C2011      C2012   1.408   1_655  A
C2011      C2018   1.508       .  S
C2012      C2013   1.400   1_455  A
C2012      H2017   1.084       .  S
C2013      C2014   1.419       .  A
C2014      C2015   1.508       .  S
C2015      H2019   1.110       .  S
C2015      H2020   1.110       .  S
C2015      H2021   1.108       .  S
C2018      H2022   1.111       .  S
C2018      H2023   1.108       .  S
C2018      H2024   1.111   1_655  S
C2025      C2030   1.412       .  A
C2025      H2032   1.084       .  S
C2026      C2027   1.416       .  A
C2027      C2028   1.401       .  A
C2027      C2034   1.510       .  S
C2028      C2029   1.410       .  A
C2028      H2033   1.083       .  S
C2030      C2031   1.506       .  S
C2031      H2035   1.111       .  S
C2031      H2036   1.110       .  S
C2031      H2037   1.110       .  S
C2034      H2038   1.110       .  S
C2034      H2039   1.110       .  S
C2034      H2040   1.111       .  S
C2041      C2042   1.410       .  A
C2041      C2046   1.412       .  A
C2041      H2048   1.084       .  S
C2042      C2043   1.421       .  A
C2043      C2044   1.414       .  A
C2043      C2050   1.508       .  S
C2044      C2045   1.411       .  A
C2044      H2049   1.083       .  S
C2045      C2046   1.421       .  A
C2046      C2047   1.508       .  S
C2047      H2051   1.111       .  S
C2047      H2052   1.110       .  S
C2047      H2053   1.111       .  S
C2050      H2054   1.110       .  S
C2050      H2055   1.111       .  S
C2050      H2056   1.109       .  S
C2057      C2058   1.398       .  A
C2057      C2062   1.399       .  A
C2057      H2064   1.084       .  S
C2058      C2059   1.424       .  A
C2059      C2060   1.400       .  A
C2059      C2066   1.511       .  S
C2060      C2061   1.399       .  A
C2060      H2065   1.084       .  S
C2061      C2062   1.424       .  A
C2062      C2063   1.511       .  S
C2063      H2067   1.108       .  S
C2063      H2068   1.110       .  S
C2063      H2069   1.108       .  S
C2066      H2072   1.109       .  S
C2073      C2074   1.405       .  A
C2073      C2078   1.402       .  A
C2073      H2080   1.084       .  S
C2074      C2075   1.412       .  A
C2075      C2076   1.408       .  A
C2075      C2082   1.507       .  S
C2076      C2077   1.412       .  A
C2076      H2081   1.083       .  S
C2077      C2078   1.419       .  A
C2078      C2079   1.510       .  S
C2079      H2083   1.111       .  S
C2079      H2084   1.110       .  S
C2079      H2085   1.110       .  S
C2082      H2086   1.110       .  S
C2082      H2087   1.111       .  S
C2082      H2088   1.111       .  S
C2089      C2090   1.402       .  A
C2089      C2094   1.411       .  A
C2089      H2096   1.084       .  S
C2090      C2091   1.420       .  A
C2091      C2092   1.389       .  A
C2091      C2098   1.511       .  S
C2092      C2093   1.395       .  A
C2092      H2097   1.085       .  S
C2093      C2094   1.418       .  A
C2094      C2095   1.503   1_455  S
C2095      H2099   1.111       .  S
C2095      H2100   1.110       .  S
C2095      H2101   1.102       .  S
C2098      H2103   1.103       .  S
C2098      H2104   1.111   1_556  S
C2105      C2106   1.406       .  A
C2105      C2110   1.407       .  A
C2105      H2112   1.084       .  S
C2106      C2107   1.421       .  A
C2107      C2108   1.397       .  A
C2107      C2114   1.511       .  S
C2108      C2109   1.397       .  A
C2108      H2113   1.085       .  S
C2109      C2110   1.413       .  A
C2110      C2111   1.507       .  S
C2111      H2115   1.111       .  S
C2111      H2116   1.110       .  S
C2111      H2117   1.109       .  S
C2114      H2118   1.109       .  S
C2114      H2119   1.109       .  S
C2114      H2120   1.111       .  S
C2121      C2122   1.406       .  A
C2121      C2126   1.402       .  A
C2121      H2128   1.081       .  S
C2122      C2123   1.413       .  A
C2123      C2124   1.402       .  A
C2123      C2130   1.507       .  S
C2124      C2125   1.405       .  A
C2124      H2129   1.085       .  S
C2125      C2126   1.411       .  A
C2126      C2127   1.506       .  S
C2127      H2131   1.111       .  S
C2127      H2132   1.109       .  S
C2127      H2133   1.110       .  S
C2130      H2134   1.104       .  S
C2130      H2135   1.110   1_655  S
C2130      H2136   1.111       .  S
C2137      C2138   1.409       .  A
C2137      C2142   1.401       .  A
C2137      H2144   1.083       .  S
C2138      C2139   1.419       .  A
C2139      C2140   1.413       .  A
C2139      C2146   1.506       .  S
C2140      C2141   1.408       .  A
C2140      H2145   1.084       .  S
C2141      C2142   1.417       .  A
C2142      C2143   1.511       .  S
C2143      H2147   1.111       .  S
C2143      H2148   1.111       .  S
C2143      H2149   1.110       .  S
C2146      H2150   1.110       .  S
C2146      H2151   1.110       .  S
C2146      H2152   1.111       .  S
C2153      C2154   1.398       .  A
C2153      C2158   1.404       .  A
C2154      C2155   1.417       .  A
C2155      C2156   1.402       .  A
C2155      C2162   1.507       .  S
C2156      C2157   1.401       .  A
C2156      H2161   1.086       .  S
C2157      C2158   1.422       .  A
C2159      H2163   1.111   1_655  S
C2159      H2164   1.108       .  S
C2159      H2165   1.109   1_655  S
C2162      H2166   1.108       .  S
C2162      H2167   1.109       .  S
C2162      H2168   1.111       .  S
C2169      C2170   1.399       .  A
C2169      C2174   1.401       .  A
C2169      H2176   1.085       .  S
C2170      C2171   1.416       .  A
C2171      C2172   1.412       .  A
C2171      C2178   1.507       .  S
C2172      C2173   1.408       .  A
C2172      H2177   1.084       .  S
C2173      C2174   1.426       .  A
C2174      C2175   1.512       .  S
C2175      H2179   1.111       .  S
C2175      H2180   1.111       .  S
C2175      H2181   1.110       .  S
C2178      H2182   1.109       .  S
C2178      H2183   1.110       .  S
C2178      H2184   1.111       .  S
C2185      C2186   1.412   1_455  A
C2185      C2190   1.402       .  A
C2185      H2192   1.084   1_455  S
C2186      C2187   1.417       .  A
C2187      C2188   1.403   1_655  A
C2187      C2194   1.508       .  S
C2188      C2189   1.402       .  A
C2188      H2193   1.083       .  S
C2189      C2190   1.405       .  A
C2190      C2191   1.507       .  S
C2191      H2195   1.111       .  S
C2191      H2196   1.110       .  S
C2191      H2197   1.110       .  S
C2194      H2198   1.110       .  S
C2194      H2199   1.107       .  S
C2194      H2200   1.111       .  S
C2201      C2202   1.410       .  A
C2201      H2208   1.083   1_655  S
C2203      C2204   1.414       .  A
C2204      C2205   1.408   1_655  A
C2204      H2209   1.084       .  S
C2205      C2206   1.422       .  A
C2206      C2207   1.508   1_556  S
C2207      H2211   1.111       .  S
C2207      H2212   1.111   1_554  S
C2207      H2213   1.110   1_554  S
C2210      H2214   1.110       .  S
C2210      H2215   1.110       .  S
C2217      C2218   1.411       .  A
C2217      C2222   1.399       .  A
C2217      H2224   1.084       .  S
C2218      C2219   1.415   1_655  A
C2219      C2220   1.402       .  A
C2219      C2226   1.509       .  S
C2220      C2221   1.412       .  A
C2220      H2225   1.084       .  S
C2221      C2222   1.415   1_455  A
C2222      C2223   1.511       .  S
C2223      H2227   1.111       .  S
C2223      H2228   1.108       .  S
C2223      H2229   1.110       .  S
C2226      H2230   1.110       .  S
C2226      H2231   1.108       .  S
C2226      H2232   1.111       .  S
C2233      C2234   1.400       .  A
C2233      C2238   1.400       .  A
C2233      H2240   1.085       .  S
C2234      C2235   1.416       .  A
C2235      C2236   1.410   1_556  A
C2235      C2242   1.507   1_556  S
C2236      C2237   1.408   1_554  A
C2236      H2241   1.083       .  S
C2237      C2238   1.425       .  A
C2239      H2243   1.111       .  S
C2239      H2244   1.111       .  S
C2242      H2246   1.109       .  S
C2242      H2247   1.110   1_554  S
C2242      H2248   1.111       .  S
C2249      C2250   1.415       .  A
C2249      C2254   1.402   1_545  A
C2249      H2256   1.084       .  S
C2250      C2251   1.417       .  A
C2251      C2252   1.405       .  A
C2251      C2258   1.507       .  S
C2252      C2253   1.403   1_545  A
C2252      H2257   1.085       .  S
C2253      C2254   1.404       .  A
C2254      C2255   1.508       .  S
C2255      H2259   1.111       .  S
C2255      H2260   1.111       .  S
C2255      H2261   1.110       .  S
C2258      H2262   1.106       .  S
C2258      H2263   1.110       .  S
C2258      H2264   1.111       .  S
C2265      C2270   1.410       .  A
C2265      H2272   1.083       .  S
C2266      C2267   1.415       .  A
C2267      C2274   1.510       .  S
C2268      C2269   1.408   1_554  A
C2268      H2273   1.084       .  S
C2269      C2270   1.413       .  A
C2270      C2271   1.506       .  S
C2271      H2275   1.111       .  S
C2271      H2276   1.110       .  S
C2271      H2277   1.110       .  S
C2274      H2279   1.110       .  S
C2274      H2280   1.111       .  S
C2281      C2282   1.404       .  A
C2281      C2286   1.402       .  A
C2281      H2288   1.085       .  S
C2282      C2283   1.409       .  A
C2283      C2284   1.403       .  A
C2283      C2290   1.506       .  S
C2284      C2285   1.410       .  A
C2284      H2289   1.084       .  S
C2285      C2286   1.414       .  A
C2286      C2287   1.506       .  S
C2287      H2291   1.111       .  S
C2287      H2292   1.102       .  S
C2287      H2293   1.110       .  S
C2290      H2294   1.110       .  S
C2290      H2295   1.110   1_565  S
C2297      C2298   1.399       .  A
C2297      C2302   1.401       .  A
C2297      H2304   1.085       .  S
C2298      C2299   1.416       .  A
C2299      C2300   1.411       .  A
C2299      C2306   1.506       .  S
C2300      C2301   1.407       .  A
C2300      H2305   1.084       .  S
C2301      C2302   1.425       .  A
C2302      C2303   1.512       .  S
C2303      H2307   1.111       .  S
C2303      H2308   1.111       .  S
C2303      H2309   1.109       .  S
C2306      H2310   1.109       .  S
C2306      H2311   1.110       .  S
C2306      H2312   1.111       .  S
C2313      C2314   1.401       .  A
C2313      C2318   1.399       .  A
C2313      H2320   1.084       .  S
C2314      C2315   1.419       .  A
C2315      C2316   1.404       .  A
C2315      C2322   1.509       .  S
C2316      C2317   1.401       .  A
C2316      H2321   1.084       .  S
C2317      C2318   1.416       .  A
C2318      C2319   1.509       .  S
C2319      H2323   1.110       .  S
C2319      H2324   1.108       .  S
C2319      H2325   1.109       .  S
C2322      H2326   1.108       .  S
C2322      H2327   1.110       .  S
C2322      H2328   1.111       .  S
C2329      C2330   1.407       .  A
C2329      C2334   1.414       .  A
C2329      H2336   1.084       .  S
C2330      C2331   1.421       .  A
C2331      C2332   1.412       .  A
C2331      C2338   1.508       .  S
C2332      C2333   1.407       .  A
C2332      H2337   1.084       .  S
C2333      C2334   1.424       .  A
C2334      C2335   1.508       .  S
C2335      H2339   1.111       .  S
C2335      H2340   1.109       .  S
C2335      H2341   1.109       .  S
C2338      H2342   1.109       .  S
C2338      H2343   1.111       .  S
C2338      H2344   1.111       .  S
C2345      C2346   1.399       .  A
C2345      C2350   1.401       .  A
C2345      H2352   1.084       .  S
C2346      C2347   1.422       .  A
C2347      C2348   1.397       .  A
C2347      C2354   1.511       .  S
C2348      C2349   1.399       .  A
C2348      H2353   1.084       .  S
C2349      C2350   1.424       .  A
C2350      C2351   1.509       .  S
C2351      H2355   1.109       .  S
C2351      H2356   1.111       .  S
C2351      H2357   1.108       .  S
C2354      H2358   1.109       .  S
C2354      H2359   1.109       .  S
C2354      H2360   1.111       .  S
C2361      C2362   1.401       .  A
C2361      C2366   1.411       .  A
C2361      H2368   1.084       .  S
C2362      C2363   1.421       .  A
C2363      C2364   1.404       .  A
C2363      C2370   1.510       .  S
C2364      C2365   1.404       .  A
C2364      H2369   1.084       .  S
C2365      C2366   1.427       .  A
C2366      C2367   1.509       .  S
C2367      H2371   1.111       .  S
C2367      H2372   1.109       .  S
C2367      H2373   1.110       .  S
C2370      H2374   1.109       .  S
C2370      H2375   1.111       .  S
C2370      H2376   1.111       .  S
C2377      C2378   1.412       .  A
C2377      C2382   1.401       .  A
C2378      C2379   1.418       .  A
C2379      C2380   1.401       .  A
C2379      C2386   1.509       .  S
C2380      C2381   1.401       .  A
C2380      H2385   1.085       .  S
C2381      C2382   1.404       .  A
C2382      C2383   1.507       .  S
C2383      H2388   1.111       .  S
C2383      H2389   1.110       .  S
C2386      H2390   1.109       .  S
C2386      H2391   1.110       .  S
C2386      H2392   1.111       .  S
C2393      C2394   1.400       .  A
C2393      C2398   1.397       .  A
C2393      H2400   1.084       .  S
C2394      C2395   1.418       .  A
C2395      C2396   1.411       .  A
C2395      C2402   1.507       .  S
C2396      C2397   1.408       .  A
C2396      H2401   1.083       .  S
C2397      C2398   1.427       .  A
C2398      C2399   1.513       .  S
C2399      H2403   1.111       .  S
C2399      H2404   1.110       .  S
C2399      H2405   1.110       .  S
C2402      H2406   1.110       .  S
C2402      H2407   1.110       .  S
C2402      H2408   1.111       .  S
C2409      C2410   1.403       .  A
C2409      C2414   1.401       .  A
C2409      H2416   1.085       .  S
C2410      C2411   1.408       .  A
C2411      C2412   1.402       .  A
C2411      C2418   1.506       .  S
C2412      C2413   1.409       .  A
C2412      H2417   1.085       .  S
C2413      C2414   1.413       .  A
C2414      C2415   1.506       .  S
C2415      H2419   1.111       .  S
C2415      H2420   1.102       .  S
C2415      H2421   1.110       .  S
C2418      H2422   1.109       .  S
C2418      H2423   1.110       .  S
C2418      H2424   1.111       .  S
C2425      C2426   1.410       .  A
C2425      C2430   1.402       .  A
C2425      H2432   1.083       .  S
C2426      C2427   1.418       .  A
C2427      C2428   1.414       .  A
C2427      C2434   1.506       .  S
C2428      C2429   1.410       .  A
C2428      H2433   1.084       .  S
C2429      C2430   1.418       .  A
C2430      C2431   1.511       .  S
C2431      H2435   1.111       .  S
C2431      H2436   1.110       .  S
C2431      H2437   1.110       .  S
C2434      H2438   1.110       .  S
C2434      H2439   1.110       .  S
C2434      H2440   1.111       .  S
C2441      C2442   1.400       .  A
C2441      C2446   1.406       .  A
C2441      H2448   1.084       .  S
C2442      C2443   1.418       .  A
C2443      C2444   1.400       .  A
C2443      C2450   1.507       .  S
C2444      C2445   1.399       .  A
C2444      H2449   1.085       .  S
C2445      C2446   1.421       .  A
C2447      H2451   1.111       .  S
C2447      H2452   1.108       .  S
C2447      H2453   1.110       .  S
C2450      H2454   1.109       .  S
C2450      H2455   1.109       .  S
C2450      H2456   1.110       .  S
C2457      C2458   1.411       .  A
C2457      C2462   1.411       .  A
C2457      H2464   1.083       .  S
C2458      C2459   1.417       .  A
C2459      C2460   1.402       .  A
C2459      C2466   1.510       .  S
C2460      C2461   1.411       .  A
C2460      H2465   1.083       .  S
C2461      C2462   1.417       .  A
C2462      C2463   1.506       .  S
C2463      H2467   1.111       .  S
C2463      H2468   1.110       .  S
C2463      H2469   1.110       .  S
C2466      H2470   1.110       .  S
C2466      H2471   1.110       .  S
C2466      H2472   1.111       .  S
C2473      C2474   1.401       .  A
C2473      C2478   1.400       .  A
C2473      H2480   1.084       .  S
C2474      C2475   1.421       .  A
C2475      C2476   1.404       .  A
C2475      C2482   1.509       .  S
C2476      C2477   1.399       .  A
C2476      H2481   1.084       .  S
C2477      C2478   1.417       .  A
C2478      C2479   1.508       .  S
C2479      H2483   1.111       .  S
C2479      H2484   1.108       .  S
C2479      H2485   1.109       .  S
C2482      H2486   1.108       .  S
C2482      H2487   1.109       .  S
C2482      H2488   1.111       .  S
C2489      C2494   1.416       .  A
C2489      H2496   1.084       .  S
C2490      C2491   1.423       .  A
C2491      C2498   1.509       .  S
C2492      C2493   1.408       .  A
C2492      H2497   1.084       .  S
C2493      C2494   1.422       .  A
C2494      C2495   1.508       .  S
C2495      H2499   1.111       .  S
C2495      H2500   1.111       .  S
C2495      H2501   1.109       .  S
C2498      H2502   1.109       .  S
C2498      H2503   1.110       .  S
C2498      H2504   1.111       .  S
C2505      C2506   1.401       .  A
C2505      C2510   1.402       .  A
C2505      H2512   1.084       .  S
C2506      C2507   1.422       .  A
C2507      C2508   1.400       .  A
C2507      C2514   1.513       .  S
C2508      C2509   1.400       .  A
C2508      H2513   1.085       .  S
C2509      C2510   1.423       .  A
C2510      C2511   1.511       .  S
C2511      H2515   1.109       .  S
C2511      H2516   1.110       .  S
C2511      H2517   1.108       .  S
C2514      H2518   1.108       .  S
C2514      H2519   1.111       .  S
C2514      H2520   1.111       .  S
