geometry optimzed in LAMMPS
_audit_creation_date              2020-12-01 
_audit_creation_method            'lammps2cif' 
_symmetry_space_group_name_H-M    'P1' 
_symmetry_Int_Tables_number       1 
_symmetry_cell_setting            triclinic 
loop_ 
_symmetry_equiv_pos_as_xyz 
  x,y,z 
_cell_length_a                    29.34583591 
_cell_length_b                    29.343236040037304 
_cell_length_c                    38.20675852213282 
_cell_angle_alpha                 89.99940313441238 
_cell_angle_beta                  90.00010131461065 
_cell_angle_gamma                 90.00009136243595 
loop_ 
_atom_site_label 
_atom_site_type_symbol 
_atom_site_fract_x 
_atom_site_fract_y 
_atom_site_fract_z 
_atom_site_charge 
O1          O  0.03361238  0.23910813  0.88598771    -0.80700
C2          C  0.87312631  0.13691332  0.90745809     0.98600
O3          O  0.87359596  0.17764465  0.89657331    -0.69800
O4          O  0.91875117  0.23508190  0.93411802    -0.73400
Al5        Al  0.92320502  0.21875407  0.88635023     1.49000
C6          C  0.94957708  0.24407854  0.95569120     0.93900
O7          O  0.00634141  0.14552990  0.95150776    -0.79600
O8          O  0.01542921  0.12230772  0.84972271    -0.73200
Al9        Al  0.01750738  0.19148541  0.91728015     1.90100
O10         O  0.99122438  0.09087802  0.91407292    -0.72300
O11         O  0.92723756  0.13512937  0.83616227    -0.72100
O12         O  0.90673680  0.11089901  0.90309906    -0.77800
O13         O  0.91882612  0.20908453  0.83713792    -0.76000
O14         O  0.96710739  0.17715913  0.89317299    -1.12100
O15         O  0.96532262  0.26770717  0.87582065    -0.71300
C16         C  0.00841918  0.27051968  0.87432942     0.99400
C17         C  0.00085222  0.10394260  0.94444580     0.95800
Al18       Al  0.96056597  0.12014395  0.87693633     1.55600
O19         O  0.99026424  0.23354408  0.94943624    -0.75900
C20         C  0.91495180  0.17145838  0.82171838     1.00000
C21         C  0.05391263  0.12883058  0.86378626     0.94900
O22         O  0.05748790  0.15220628  0.89138957    -0.81300
O23         O  0.77774410  0.98310750  0.60325480    -0.80700
C24         C  0.87991218  0.14360948  0.58173476     0.98600
O25         O  0.83918947  0.14314290  0.59263152    -0.69800
O26         O  0.78177178  0.09796513  0.55508053    -0.73400
Al27       Al  0.79808222  0.09352694  0.60285259     1.49000
C28         C  0.77276077  0.06712274  0.53352227     0.93900
O29         O  0.87129650  0.01036546  0.53771872    -0.79600
O30         O  0.89451503  0.00133657  0.63951341    -0.73200
Al31       Al  0.82535284  0.99920535  0.57195303     1.90100
O32         O  0.92594673  0.02548710  0.57515065    -0.72300
O33         O  0.88169847  0.08954741  0.65303127    -0.72100
O34         O  0.90592288  0.10999293  0.58608524    -0.77800
O35         O  0.80774344  0.09791247  0.65206613    -0.76000
O36         O  0.83967452  0.04962298  0.59604220    -1.12100
O37         O  0.74912984  0.05140625  0.61337872    -0.71300
C38         C  0.74632477  0.00830623  0.61489079     0.99400
C39         C  0.91288076  0.01585637  0.54477839     0.95800
Al40       Al  0.89668306  0.05618013  0.61227377     1.55600
O41         O  0.78328444  0.02643271  0.53979340    -0.75900
C42         C  0.84536961  0.10182157  0.66747715     1.00000
C43         C  0.88800613  0.96284037  0.62546213     0.94900
O44         O  0.86464072  0.95924198  0.59785559    -0.81300
O45         O  0.94991395  0.87377389  0.09801051    -0.80700
C46         C  0.13422136  0.88892424  0.08183600     0.98600
O47         O  0.10064554  0.91497532  0.08623444    -0.69800
O48         O  0.01617044  0.93518465  0.07541516    -0.73400
Al49       Al  0.04685759  0.90576481  0.11245286     1.49000
C50         C  0.00655649  0.92223960  0.04501584     0.93900
O51         O  0.01707172  0.79269365  0.03973737    -0.79600
O52         O  0.04191659  0.75821615  0.11345414    -0.73200
Al53       Al  0.98983623  0.83459111  0.07199759     1.90100
O54         O  0.08853302  0.79082281  0.05518243    -0.72300
O55         O  0.08847714  0.81673573  0.15219472    -0.72100
O56         O  0.13374320  0.84820001  0.09274644    -0.77800
O57         O  0.08025023  0.89070139  0.15317236    -0.76000
O58         O  0.04023694  0.84878465  0.09615223    -1.12100
O59         O  0.99202325  0.90358355  0.13969941    -0.71300
C60         C  0.95352533  0.89708842  0.12564332     0.99400
C61         C  0.05773710  0.78204080  0.03353077     0.95800
Al62       Al  0.08408671  0.80712480  0.10295786     1.55600
O63         O  0.00102996  0.88068329  0.03787465    -0.75900
C64         C  0.09247606  0.85435362  0.16761105     1.00000
C65         C  0.99881804  0.75540324  0.11485759     0.94900
O66         O  0.97366713  0.78681865  0.10315002    -0.81300
O67         O  0.14302605  0.06689877  0.39120791    -0.80700
C68         C  0.12795025  0.88257210  0.40737952     0.98600
O69         O  0.10188995  0.91614351  0.40298860    -0.69800
O70         O  0.08163503  0.00062035  0.41379139    -0.73400
Al71       Al  0.11108279  0.96993402  0.37676645     1.49000
C72         C  0.09456111  0.01023692  0.44419459     0.93900
O73         O  0.22409830  0.99976352  0.44950993    -0.79600
O74         O  0.25861882  0.97494066  0.37580180    -0.73200
Al75       Al  0.18220895  0.02699034  0.41723744     1.90100
O76         O  0.22601010  0.92829857  0.43405777    -0.72300
O77         O  0.20013639  0.92836517  0.33703642    -0.72100
O78         O  0.16867096  0.88306669  0.39647026    -0.77800
O79         O  0.12617108  0.93653587  0.33605678    -0.76000
O80         O  0.16804910  0.97658098  0.39307843    -1.12100
O81         O  0.11325483  0.02476754  0.34951362    -0.71300
C82         C  0.11973045  0.06327391  0.36356686     0.99400
C83         C  0.23477179  0.95909830  0.45571373     0.95800
Al84       Al  0.20972660  0.93274693  0.38627793     1.55600
O85         O  0.13610851  0.01577701  0.45134712    -0.75900
C86         C  0.16252466  0.92433779  0.32161881     1.00000
C87         C  0.26141672  0.01804402  0.37440319     0.94900
O88         O  0.22998746  0.04318328  0.38610100    -0.81300
O89         O  0.27760403  0.04300808  0.88601215    -0.80700
C90         C  0.37977633  0.88249610  0.90748838     0.98600
O91         O  0.33905429  0.88296918  0.89658830    -0.69800
O92         O  0.28159298  0.92814117  0.93410837    -0.73400
Al93       Al  0.29795732  0.93258702  0.88634488     1.49000
C94         C  0.27262577  0.95896422  0.95569431     0.93900
O95         O  0.37120183  0.01572675  0.95150959    -0.79600
O96         O  0.39440390  0.02477419  0.84971832    -0.73200
Al97       Al  0.32524083  0.02689252  0.91728789     1.90100
O98         O  0.42583858  0.00061399  0.91406954    -0.72300
O99         O  0.38160790  0.93656377  0.83619325    -0.72100
O100        O  0.40579559  0.91610781  0.90313939    -0.77800
O101        O  0.30765683  0.92819340  0.83712761    -0.76000
O102        O  0.33955431  0.97648409  0.89317981    -1.12100
O103        O  0.24902181  0.97471844  0.87580018    -0.71300
C104        C  0.24619967  0.01782001  0.87433760     0.99400
C105        C  0.41278325  0.01023663  0.94444384     0.95800
Al106      Al  0.39656869  0.96992621  0.87695268     1.55600
O107        O  0.28320068  0.99964892  0.94945659    -0.75900
C108        C  0.34529416  0.92428729  0.82173012     1.00000
C109        C  0.38787901  0.06326968  0.86376768     0.94900
O110        O  0.36451087  0.06686343  0.89137401    -0.81300
O111        O  0.53378546  0.78699425  0.60324439    -0.80700
C112        C  0.37330194  0.88919105  0.58174824     0.98600
O113        O  0.37376928  0.84846501  0.59264625    -0.69800
O114        O  0.41892663  0.79100220  0.55512265    -0.73400
Al115      Al  0.42337625  0.80735739  0.60288744     1.49000
C116        C  0.44975073  0.78200719  0.53354692     0.93900
O117        O  0.50651005  0.88055894  0.53771253    -0.79600
O118        O  0.51559038  0.90380386  0.63949640    -0.73200
Al119      Al  0.51767870  0.83461311  0.57194770     1.90100
O120        O  0.49140624  0.93522160  0.57513965    -0.72300
O121        O  0.42739496  0.89100904  0.65305233    -0.72100
O122        O  0.40691263  0.91520746  0.58610386    -0.77800
O123        O  0.41898907  0.81705438  0.65210174    -0.76000
O124        O  0.46727844  0.84894722  0.59605353    -1.12100
O125        O  0.46549479  0.75840930  0.61343306    -0.71300
C126        C  0.50859188  0.75559000  0.61491485     0.99400
C127        C  0.50102059  0.92214802  0.54476700     0.95800
Al128      Al  0.46073618  0.90596896  0.61227692     1.55600
O129        O  0.49043667  0.79254941  0.53979709    -0.75900
C130        C  0.41510545  0.85468979  0.66750859     1.00000
C131        C  0.55407567  0.89727598  0.62543812     0.94900
O132        O  0.55765713  0.87389793  0.59783601    -0.81300
O133        O  0.64290491  0.95917291  0.09800754    -0.80700
C134        C  0.62780721  0.14349778  0.08181486     0.98600
O135        O  0.60175888  0.10991858  0.08620830    -0.69800
O136        O  0.58153432  0.02543659  0.07541133    -0.73400
Al137      Al  0.61097110  0.05613816  0.11243851     1.49000
C138        C  0.59447212  0.01581567  0.04500981     0.93900
O139        O  0.72402006  0.02628586  0.03972152    -0.79600
O140        O  0.75851271  0.05116219  0.11335587    -0.73200
Al141      Al  0.68210427  0.99907441  0.07198635     1.90100
O142        O  0.72582475  0.09777805  0.05510882    -0.72300
O143        O  0.70004767  0.09771628  0.15213516    -0.72100
O144        O  0.66852763  0.14301483  0.09272395    -0.77800
O145        O  0.62607873  0.08954937  0.15314332    -0.76000
O146        O  0.66793165  0.04949474  0.09612322    -1.12100
O147        O  0.61315395  0.00131458  0.13970163    -0.71300
C148        C  0.61961326  0.96280588  0.12564945     0.99400
C149        C  0.73463429  0.06695830  0.03348186     0.95800
Al150      Al  0.70959910  0.09334026  0.10289686     1.55600
O151        O  0.63602230  0.01027651  0.03786340    -0.75900
C152        C  0.66244652  0.10174644  0.16756511     1.00000
C153        C  0.76129728  0.00806080  0.11480685     0.94900
O154        O  0.72985526  0.98290613  0.10314991    -0.81300
O155        O  0.45008368  0.15231876  0.39120307    -0.80700
C156        C  0.63439713  0.13715645  0.40736273     0.98600
O157        O  0.60082042  0.11110823  0.40296092    -0.69800
O158        O  0.51635037  0.09090050  0.41379135    -0.73400
Al159      Al  0.54702657  0.12032524  0.37675151     1.49000
C160        C  0.50672484  0.10384236  0.44418954     0.93900
O161        O  0.51725437  0.23339092  0.44947893    -0.79600
O162        O  0.54210127  0.26787969  0.37578236    -0.73200
Al163      Al  0.49001277  0.19149589  0.41721568     1.90100
O164        O  0.58871908  0.23524175  0.43404168    -0.72300
O165        O  0.58864417  0.20937229  0.33702840    -0.72100
O166        O  0.63392093  0.17788265  0.39645893    -0.77800
O167        O  0.58040569  0.13540650  0.33603064    -0.76000
O168        O  0.54041156  0.17730194  0.39306079    -1.12100
O169        O  0.49218186  0.12250387  0.34951145    -0.71300
C170        C  0.45368616  0.12900070  0.36357169     0.99400
C171        C  0.55792230  0.24403337  0.45568991     0.95800
Al172      Al  0.58426541  0.21896220  0.38626354     1.55600
O173        O  0.50119997  0.14539812  0.45133424    -0.75900
C174        C  0.59262854  0.17176171  0.32160120     1.00000
C175        C  0.49900345  0.27069150  0.37437093     0.94900
O176        O  0.47384966  0.23927006  0.38606458    -0.81300
O177        O  0.47372347  0.28692061  0.88601546    -0.80700
C178        C  0.63422098  0.38910169  0.90750106     0.98600
O179        O  0.63374765  0.34837800  0.89659682    -0.69800
O180        O  0.58858390  0.29088545  0.93409222    -0.73400
Al181      Al  0.58413561  0.30728237  0.88633500     1.49000
C182        C  0.55776969  0.28191692  0.95568298     0.93900
O183        O  0.50101714  0.38050157  0.95152938    -0.79600
O184        O  0.49193709  0.40374806  0.84974745    -0.73200
Al185      Al  0.48984289  0.33455045  0.91729921     1.90100
O186        O  0.51612153  0.43515767  0.91409915    -0.72300
O187        O  0.58013263  0.39096244  0.83619309    -0.72100
O188        O  0.60061589  0.41512670  0.90314520    -0.77800
O189        O  0.58853240  0.31700940  0.83711990    -0.76000
O190        O  0.54024103  0.34887761  0.89318490    -1.12100
O191        O  0.54200650  0.25835140  0.87577159    -0.71300
C192        C  0.49890835  0.25552668  0.87431831     0.99400
C193        C  0.50651190  0.42208844  0.94447243     0.95800
Al194      Al  0.54679081  0.40590408  0.87696781     1.55600
O195        O  0.51708877  0.29249728  0.94945433    -0.75900
C196        C  0.59241962  0.35465333  0.82172409     1.00000
C197        C  0.45344982  0.39721181  0.86380140     0.94900
O198        O  0.44986597  0.37383097  0.89140303    -0.81300
O199        O  0.72993174  0.54310697  0.60324907    -0.80700
C200        C  0.62779948  0.38257707  0.58172873     0.98600
O201        O  0.66851198  0.38305653  0.59264988    -0.69800
O202        O  0.72598868  0.42824262  0.55514946    -0.73400
Al203      Al  0.70959360  0.43268271  0.60290898     1.49000
C204        C  0.73496152  0.45906857  0.53356604     0.93900
O205        O  0.63637386  0.51581874  0.53771964    -0.79600
O206        O  0.61310702  0.52484497  0.63950190    -0.73200
Al207      Al  0.68231359  0.52698618  0.57195782     1.90100
O208        O  0.58171833  0.50068793  0.57513908    -0.72300
O209        O  0.62590853  0.43663583  0.65302917    -0.72100
O210        O  0.60177054  0.41618354  0.58606842    -0.77800
O211        O  0.69986230  0.42828686  0.65212557    -0.76000
O212        O  0.66799359  0.47657253  0.59605888    -1.12100
O213        O  0.75851678  0.47482104  0.61346999    -0.71300
C214        C  0.76133436  0.51792291  0.61493143     0.99400
C215        C  0.59478955  0.51032016  0.54477075     0.95800
Al216      Al  0.61096987  0.47000064  0.61226389     1.55600
O217        O  0.72437546  0.49975105  0.53980114    -0.75900
C218        C  0.66221512  0.42436992  0.66750879     1.00000
C219        C  0.61963659  0.56334411  0.62545925     0.94900
O220        O  0.64302260  0.56694716  0.59786210    -0.81300
O221        O  0.36468818  0.45930250  0.39121154    -0.80700
C222        C  0.37976198  0.64363875  0.40737471     0.98600
O223        O  0.40581593  0.61006444  0.40298102    -0.69800
O224        O  0.42605026  0.52559266  0.41380195    -0.73400
Al225      Al  0.39661391  0.55627093  0.37676456     1.49000
C226        C  0.41311053  0.51596247  0.44420127     0.93900
O227        O  0.28355692  0.52642408  0.44948143    -0.79600
O228        O  0.24907084  0.55128424  0.37584826    -0.73200
Al229      Al  0.32548213  0.49920922  0.41722220     1.90100
O230        O  0.28175135  0.59791427  0.43408876    -0.72300
O231        O  0.30752855  0.59783142  0.33706577    -0.72100
O232        O  0.33904193  0.64314851  0.39646676    -0.77800
O233        O  0.38149767  0.58965853  0.33605052    -0.76000
O234        O  0.33965276  0.54962601  0.39308015    -1.12100
O235        O  0.39445055  0.50143089  0.34951501    -0.71300
C236        C  0.38799006  0.46292575  0.36357421     0.99400
C237        C  0.27293623  0.56709638  0.45571628     0.95800
Al238      Al  0.29797919  0.59346711  0.38630165     1.55600
O239        O  0.37156011  0.51041850  0.45134619    -0.75900
C240        C  0.34512661  0.60184909  0.32163028     1.00000
C241        C  0.24629304  0.50818277  0.37439825     0.94900
O242        O  0.27773836  0.48303282  0.38605584    -0.81300
O243        O  0.55752495  0.65225037  0.09801511    -0.80700
C244        C  0.37321186  0.63708459  0.08180663     0.98600
O245        O  0.40679085  0.61104155  0.08621422    -0.69800
O246        O  0.49126817  0.59085055  0.07540284    -0.73400
Al247      Al  0.46057322  0.62026544  0.11243876     1.49000
C248        C  0.50090914  0.60380176  0.04500864     0.93900
O249        O  0.49039122  0.73335584  0.03973746    -0.79600
O250        O  0.46548857  0.76782105  0.11338699    -0.73200
Al251      Al  0.51761084  0.69144096  0.07200028     1.90100
O252        O  0.41890531  0.73514433  0.05512285    -0.72300
O253        O  0.41894379  0.70932451  0.15213727    -0.72100
O254        O  0.37368257  0.67781049  0.09271042    -0.77800
O255        O  0.42717638  0.63535623  0.15315126    -0.76000
O256        O  0.46719555  0.67723936  0.09613091    -1.12100
O257        O  0.51540322  0.62244476  0.13969558    -0.71300
C258        C  0.55390602  0.62893306  0.12564564     0.99400
C259        C  0.44972127  0.74396493  0.03349808     0.95800
Al260      Al  0.42333501  0.71889510  0.10290544     1.55600
O261        O  0.50644123  0.64535868  0.03786988    -0.75900
C262        C  0.41495379  0.67171924  0.16757080     1.00000
C263        C  0.50858480  0.77062108  0.11483994     0.94900
O264        O  0.53375001  0.73919337  0.10317275    -0.81300
O265        O  0.22976220  0.48301427  0.88596039    -0.80700
C266        C  0.12760960  0.64352516  0.90747994     0.98600
O267        O  0.16832438  0.64305576  0.89656606    -0.69800
O268        O  0.22575598  0.59788664  0.93411494    -0.73400
Al269      Al  0.20942549  0.59343480  0.88634520     1.49000
C270        C  0.23477648  0.56704937  0.95567648     0.93900
O271        O  0.13623227  0.51029606  0.95151000    -0.79600
O272        O  0.11297640  0.50124516  0.84972098    -0.73200
Al273      Al  0.18216303  0.49912358  0.91726822     1.90100
O274        O  0.08156924  0.52540646  0.91408651    -0.72300
O275        O  0.12578721  0.58945444  0.83618670    -0.72100
O276        O  0.10159379  0.60990983  0.90314080    -0.77800
O277        O  0.19974391  0.59780454  0.83713030    -0.76000
O278        O  0.16783466  0.54953521  0.89317323    -1.12100
O279        O  0.25837294  0.55131010  0.87581819    -0.71300
C280        C  0.26117947  0.50820983  0.87431590     0.99400
C281        C  0.09464567  0.51578719  0.94445828     0.95800
Al282      Al  0.11081985  0.55609277  0.87695393     1.55600
O283        O  0.22424497  0.52635835  0.94941518    -0.75900
C284        C  0.16211128  0.60171916  0.82172800     1.00000
C285        C  0.11948972  0.46275118  0.86377505     0.94900
O286        O  0.14286326  0.45915589  0.89137823    -0.81300
O287        O  0.97389514  0.73921352  0.60321546    -0.80700
C288        C  0.13439101  0.63703480  0.58172800     0.98600
O289        O  0.13391718  0.67776258  0.59262168    -0.69800
O290        O  0.08874416  0.73522854  0.55511327    -0.73400
Al291      Al  0.08430500  0.71885932  0.60287393     1.49000
C292        C  0.05792337  0.74419356  0.53352779     0.93900
O293        O  0.00116152  0.64561993  0.53770858    -0.79600
O294        O  0.99210927  0.62239222  0.63949165    -0.73200
Al295      Al  0.99000287  0.69157965  0.57193379     1.90100
O296        O  0.01629319  0.59097353  0.57514168    -0.72300
O297        O  0.08030379  0.63520262  0.65303431    -0.72100
O298        O  0.10078628  0.61101152  0.58608924    -0.77800
O299        O  0.08870616  0.70915670  0.65208724    -0.76000
O300        O  0.04040833  0.67725922  0.59604034    -1.12100
O301        O  0.04217994  0.76779574  0.61342846    -0.71300
C302        C  0.99908254  0.77061443  0.61489723     0.99400
C303        C  0.00665810  0.60403460  0.54477085     0.95800
Al304      Al  0.04696286  0.62023854  0.61226679     1.55600
O305        O  0.01724204  0.73362501  0.53976824    -0.75900
C306        C  0.09258776  0.67151987  0.66749260     1.00000
C307        C  0.95361907  0.62892568  0.62544125     0.94900
O308        O  0.95003148  0.65230587  0.59783995    -0.81300
O309        O  0.05770377  0.37386565  0.39124277    -0.80700
C310        C  0.87339837  0.38904447  0.40742926     0.98600
O311        O  0.90698077  0.41508541  0.40302728    -0.69800
O312        O  0.99146189  0.43526642  0.41384164    -0.73400
Al313      Al  0.96076236  0.40585593  0.37680399     1.49000
C314        C  0.00107015  0.42231391  0.44424165     0.93900
O315        O  0.99055280  0.29276147  0.44950787    -0.79600
O316        O  0.96567207  0.25830631  0.37583799    -0.73200
Al317      Al  0.01778204  0.33467523  0.41725172     1.90100
O318        O  0.91907468  0.29096482  0.43410271    -0.72300
O319        O  0.91912976  0.31681539  0.33708735    -0.72100
O320        O  0.87386609  0.34831974  0.39652094    -0.77800
O321        O  0.92736022  0.39078226  0.33608765    -0.76000
O322        O  0.96737581  0.34887997  0.39310970    -1.12100
O323        O  0.01558958  0.40366006  0.34955123    -0.71300
C324        C  0.05408878  0.39717325  0.36360658     0.99400
C325        C  0.94988205  0.28214624  0.45573548     0.95800
Al326      Al  0.92351573  0.30723039  0.38632236     1.55600
O327        O  0.00659581  0.38075633  0.45138100    -0.75900
C328        C  0.91513228  0.35442597  0.32166093     1.00000
C329        C  0.00876940  0.25549939  0.37440098     0.94900
O330        O  0.03393263  0.28691964  0.38608358    -0.81300
O331        O  0.86452970  0.56678175  0.09804578    -0.80700
C332        C  0.87958475  0.38244747  0.08186039     0.98600
O333        O  0.90565041  0.41601340  0.08625643    -0.69800
O334        O  0.92591186  0.50048513  0.07544722    -0.73400
Al335      Al  0.89647004  0.46980806  0.11247733     1.49000
C336        C  0.91297977  0.51012437  0.04504968     0.93900
O337        O  0.78343992  0.49965750  0.03974813    -0.79600
O338        O  0.74893185  0.47482333  0.11345499    -0.73200
Al339      Al  0.82533891  0.52687734  0.07201949     1.90100
O340        O  0.78152849  0.42818960  0.05519280    -0.72300
O341        O  0.80741472  0.42823963  0.15220956    -0.72100
O342        O  0.83886537  0.38294572  0.09277128    -0.77800
O343        O  0.88137991  0.43641971  0.15319028    -0.76000
O344        O  0.83950076  0.47646211  0.09617148    -1.12100
O345        O  0.89432064  0.52464719  0.13972894    -0.71300
C346        C  0.88784096  0.56315550  0.12567869     0.99400
C347        C  0.77276345  0.45899366  0.03354095     0.95800
Al348      Al  0.79781896  0.43262893  0.10297111     1.55600
O349        O  0.87143158  0.51567269  0.03790350    -0.75900
C350        C  0.84502576  0.42422350  0.16762868     1.00000
C351        C  0.74613929  0.51792618  0.11485986     0.94900
O352        O  0.77756990  0.54306526  0.10316429    -0.81300
C353        C  0.89461759  0.35737318  0.28760071    -0.17400
C354        C  0.87674239  0.36774157  0.26028744     0.06600
C355        C  0.85842975  0.38594458  0.22902690     0.08500
C356        C  0.84798648  0.40374739  0.20170222    -0.18300
C357        C  0.00262154  0.56966557  0.51872111    -0.17400
C358        C  0.00284972  0.53469454  0.50249137     0.06600
C359        C  0.00474330  0.49176377  0.48643171     0.08500
C360        C  0.00502537  0.45676721  0.47023426    -0.18300
C361        C  0.94744458  0.51409593  0.01906794    -0.17400
C362        C  0.98243470  0.51383858  0.00286475     0.06600
C363        C  0.02534722  0.51197340  0.98677819     0.08500
C364        C  0.06029584  0.51175721  0.97052293    -0.18300
C365        C  0.11299015  0.66850623  0.70158456    -0.17400
C366        C  0.13070459  0.65812444  0.72895347     0.06600
C367        C  0.14880209  0.63993368  0.76028623     0.08500
C368        C  0.15911909  0.62215597  0.78764588    -0.18300
C369        C  0.59408154  0.60551845  0.13805021    -0.17400
C370        C  0.62930577  0.58412253  0.14026817     0.06600
C371        C  0.67056003  0.55919910  0.13611043     0.08500
C372        C  0.70532171  0.53920519  0.12842693    -0.18300
C373        C  0.33502727  0.62062396  0.06175778    -0.17400
C374        C  0.30759331  0.60649312  0.04077782     0.06600
C375        C  0.27963769  0.59067180  0.01304048     0.08500
C376        C  0.25826869  0.57867643  0.98758637    -0.18300
C377        C  0.17262979  0.62055102  0.56175478    -0.17400
C378        C  0.20014991  0.60644537  0.54083492     0.06600
C379        C  0.22818418  0.59067661  0.51313117     0.08500
C380        C  0.24954822  0.57871600  0.48766842    -0.18300
C381        C  0.20547786  0.48691594  0.36082457    -0.17400
C382        C  0.17072184  0.46692060  0.35313514     0.06600
C383        C  0.12947791  0.44198764  0.34897760     0.08500
C384        C  0.09426127  0.42058394  0.35120019    -0.18300
C385        C  0.34804153  0.62233476  0.28756215    -0.17400
C386        C  0.35840980  0.64016752  0.26023483     0.06600
C387        C  0.37663861  0.65840627  0.22896290     0.08500
C388        C  0.39446610  0.66878588  0.20163660    -0.18300
C389        C  0.56043422  0.51435223  0.51871077    -0.17400
C390        C  0.52547676  0.51413012  0.50246717     0.06600
C391        C  0.48255856  0.51225653  0.48639063     0.08500
C392        C  0.44756912  0.51199453  0.47018740    -0.18300
C393        C  0.83521316  0.40550569  0.42747784    -0.17400
C394        C  0.80777941  0.41963389  0.44845920     0.06600
C395        C  0.77982462  0.43544891  0.47620006     0.08500
C396        C  0.75845631  0.44743909  0.50165650    -0.18300
C397        C  0.80217167  0.53916008  0.62849907    -0.17400
C398        C  0.83695435  0.55916694  0.63610573     0.06600
C399        C  0.87821527  0.58411680  0.64013202     0.08500
C400        C  0.91342846  0.60551882  0.63783425    -0.18300
C401        C  0.50250414  0.45645006  0.97053111    -0.17400
C402        C  0.50274718  0.49141699  0.98676521     0.06600
C403        C  0.50463635  0.53434778  0.00282603     0.08500
C404        C  0.50489744  0.56934574  0.01902101    -0.18300
C405        C  0.65917565  0.40394460  0.70159637    -0.17400
C406        C  0.64878294  0.38620051  0.72895482     0.06600
C407        C  0.63060257  0.36805127  0.76027820     0.08500
C408        C  0.61284340  0.35768365  0.78763606    -0.18300
C409        C  0.67245859  0.40557673  0.92748152    -0.17400
C410        C  0.69997759  0.41966934  0.94840886     0.06600
C411        C  0.72801052  0.43542020  0.97612089     0.08500
C412        C  0.74937377  0.44737039  0.00158833    -0.18300
C413        C  0.41326110  0.42061880  0.85141104    -0.17400
C414        C  0.37805334  0.44202639  0.84911107     0.06600
C415        C  0.33679901  0.46698115  0.85313688     0.08500
C416        C  0.30201842  0.48698589  0.86074650    -0.18300
C417        C  0.56955824  0.26741365  0.48764285    -0.17400
C418        C  0.58151208  0.28877065  0.51311182     0.06600
C419        C  0.59725925  0.31680339  0.54082460     0.08500
C420        C  0.61134231  0.34432898  0.56175051    -0.18300
C421        C  0.41141917  0.42275621  0.35117084    -0.17400
C422        C  0.43282687  0.38753741  0.34895237     0.06600
C423        C  0.45775674  0.34628505  0.35311110     0.08500
C424        C  0.47774575  0.31151980  0.36079831    -0.18300
C425        C  0.59618634  0.92264560  0.13806525    -0.17400
C426        C  0.57476785  0.88743621  0.14029030     0.06600
C427        C  0.54982403  0.84619734  0.13612789     0.08500
C428        C  0.52983043  0.81144151  0.12842910    -0.18300
C429        C  0.61310787  0.16880778  0.28753062    -0.17400
C430        C  0.63092560  0.15839447  0.26020683     0.06600
C431        C  0.64914896  0.14011676  0.22894341     0.08500
C432        C  0.65952155  0.12225771  0.20162615    -0.18300
C433        C  0.61135776  0.18169690  0.06177617    -0.17400
C434        C  0.59722952  0.20913490  0.04079817     0.06600
C435        C  0.58140849  0.23708204  0.01305576     0.08500
C436        C  0.56941083  0.25843740  0.98759555    -0.18300
C437        C  0.39620174  0.68183723  0.42741728    -0.17400
C438        C  0.41031878  0.70926844  0.44840460     0.06600
C439        C  0.42612672  0.73720073  0.47615887     0.08500
C440        C  0.43811617  0.75854204  0.50162801    -0.18300
C441        C  0.52981480  0.71475199  0.62849513    -0.17400
C442        C  0.54982437  0.67997483  0.63611512     0.06600
C443        C  0.57479113  0.63872586  0.64015094     0.08500
C444        C  0.59621296  0.60352384  0.63785395    -0.18300
C445        C  0.50504839  0.95650553  0.51870501    -0.17400
C446        C  0.50483607  0.99146245  0.50245604     0.06600
C447        C  0.50298299  0.03438401  0.48637567     0.08500
C448        C  0.50273937  0.06937866  0.47017387    -0.18300
C449        C  0.43810123  0.76734153  0.00154176    -0.17400
C450        C  0.42613842  0.78869480  0.97607427     0.06600
C451        C  0.41036614  0.81672400  0.94836925     0.08500
C452        C  0.39625829  0.84424838  0.92745313    -0.18300
C453        C  0.56001315  0.01185891  0.01902279    -0.17400
C454        C  0.52502617  0.01213752  0.00281612     0.06600
C455        C  0.48211069  0.01403006  0.98673634     0.08500
C456        C  0.44715155  0.01426312  0.97049451    -0.18300
C457        C  0.39467527  0.85769366  0.70159382    -0.17400
C458        C  0.37690143  0.86802307  0.72895257     0.06600
C459        C  0.35870626  0.88613593  0.76028073     0.08500
C460        C  0.34831479  0.90386491  0.78764307    -0.18300
C461        C  0.41129034  0.10345628  0.85137004    -0.17400
C462        C  0.43270391  0.13866385  0.84907546     0.06600
C463        C  0.45766535  0.17991656  0.85311549     0.08500
C464        C  0.47767558  0.21469297  0.86073720    -0.18300
C465        C  0.11151289  0.84436775  0.42741659    -0.17400
C466        C  0.09738662  0.81693154  0.44839580     0.06600
C467        C  0.08156092  0.78899583  0.47614213     0.08500
C468        C  0.06955929  0.76765494  0.50160753    -0.18300
C469        C  0.09632096  0.10344568  0.35115163    -0.17400
C470        C  0.07492112  0.13866749  0.34893194     0.06600
C471        C  0.04999786  0.17991843  0.35310387     0.08500
C472        C  0.03001568  0.21467903  0.36080924    -0.18300
C473        C  0.33506545  0.90567740  0.56177398    -0.17400
C474        C  0.30754667  0.91977373  0.54084862     0.06600
C475        C  0.27951512  0.93552263  0.51313632     0.08500
C476        C  0.25815482  0.94747064  0.48766720    -0.18300
C477        C  0.41349847  0.10559675  0.35117784    -0.17400
C478        C  0.37826440  0.08421339  0.34897327     0.06600
C479        C  0.33700225  0.05930592  0.35314597     0.08500
C480        C  0.30223689  0.03932124  0.36083692    -0.18300
C481        C  0.11113801  0.68176950  0.92745358    -0.17400
C482        C  0.09705344  0.70928934  0.94838229     0.06600
C483        C  0.08131438  0.73731375  0.97610193     0.08500
C484        C  0.06936964  0.75866363  0.00157622    -0.18300
C485        C  0.97755730  0.71458016  0.12843941    -0.17400
C486        C  0.95757293  0.67981494  0.13613587     0.06600
C487        C  0.93265404  0.63855650  0.14030389     0.08500
C488        C  0.91125751  0.60333024  0.13808751    -0.18300
C489        C  0.80211537  0.98679949  0.12838418    -0.17400
C490        C  0.83687358  0.96681236  0.13608229     0.06600
C491        C  0.87812353  0.94189084  0.14025471     0.08500
C492        C  0.91334680  0.92049561  0.13804374    -0.18300
C493        C  0.11298254  0.85732580  0.20167488    -0.17400
C494        C  0.13083983  0.86774013  0.22898624     0.06600
C495        C  0.14912976  0.88599854  0.26023764     0.08500
C496        C  0.15956278  0.90383720  0.28755223    -0.18300
C497        C  0.24914922  0.94732820  0.98760902    -0.17400
C498        C  0.22779198  0.93532849  0.01306788     0.06600
C499        C  0.19984496  0.91950475  0.04080902     0.08500
C500        C  0.17241143  0.90537532  0.06178978    -0.18300
C501        C  0.97785186  0.81144783  0.62847854    -0.17400
C502        C  0.95783535  0.84621932  0.63610206     0.06600
C503        C  0.93286125  0.88746283  0.64014576     0.08500
C504        C  0.91143433  0.92266227  0.63785554    -0.18300
C505        C  0.89640369  0.18185408  0.56177192    -0.17400
C506        C  0.91051582  0.20937737  0.54085668     0.06600
C507        C  0.92628893  0.23740822  0.51315324     0.08500
C508        C  0.93825291  0.25876492  0.48768781    -0.18300
C509        C  0.94724025  0.01181592  0.51872141    -0.17400
C510        C  0.98219077  0.01203313  0.50246876     0.06600
C511        C  0.02510270  0.01391214  0.48638038     0.08500
C512        C  0.06009173  0.01418780  0.47017587    -0.18300
C513        C  0.67258420  0.12070053  0.42740872    -0.17400
C514        C  0.70000982  0.10656833  0.44839304     0.06600
C515        C  0.72794442  0.09074198  0.47613972     0.08500
C516        C  0.74929173  0.07874469  0.50160271    -0.18300
C517        C  0.59426227  0.92069172  0.63782183    -0.17400
C518        C  0.62946531  0.94210812  0.64011338     0.06600
C519        C  0.67071184  0.96707321  0.63607845     0.08500
C520        C  0.70548668  0.98708412  0.62846329    -0.18300
C521        C  0.75800538  0.07857529  0.00152363    -0.17400
C522        C  0.77935401  0.09053398  0.97605314     0.06600
C523        C  0.80737385  0.10630433  0.94834354     0.08500
C524        C  0.83488816  0.12041722  0.92742278    -0.18300
C525        C  0.00258859  0.95669964  0.01902671    -0.17400
C526        C  0.00284394  0.99169319  0.00282327     0.06600
C527        C  0.00469765  0.03461567  0.98674400     0.08500
C528        C  0.00489840  0.06957626  0.97049939    -0.18300
C529        C  0.84835025  0.12225548  0.70155777    -0.17400
C530        C  0.85867858  0.14000970  0.72892174     0.06600
C531        C  0.87680660  0.15814715  0.76025920     0.08500
C532        C  0.89454418  0.16847727  0.78762880    -0.18300
C533        C  0.93794182  0.26753936  0.98761126    -0.17400
C534        C  0.92594483  0.28888044  0.01307787     0.06600
C535        C  0.91012933  0.31681416  0.04082850     0.08500
C536        C  0.89601298  0.34424706  0.06181439    -0.18300
C537        C  0.02964313  0.31135763  0.86075150    -0.17400
C538        C  0.04965690  0.34613100  0.85313133     0.06600
C539        C  0.07463147  0.38737465  0.84909353     0.08500
C540        C  0.09605962  0.42257216  0.85138652    -0.18300
C541        C  0.09410576  0.10541574  0.85140775    -0.17400
C542        C  0.12931811  0.08400987  0.84912422     0.06600
C543        C  0.17057630  0.05905900  0.85316313     0.08500
C544        C  0.20535796  0.03905307  0.86077398    -0.18300
loop_ 
_geom_bond_atom_site_label_1 
_geom_bond_atom_site_label_2 
_geom_bond_distance 
_geom_bond_site_symmetry_2 
_ccdc_geom_bond_type 
O1           C16   1.263       .  A
O1           Al9   1.899       .  S
C2           O12   1.258       .  A
C2            O3   1.266       .  A
C2          C524   1.441       .  S
O3           Al5   1.931       .  S
O4            C6   1.252       .  A
O4           Al5   1.891       .  S
Al5          O13   1.906       .  S
Al5          O15   1.937       .  S
Al5          O14   1.794       .  S
C6           O19   1.256       .  A
C6          C533   1.441       .  S
O7           C17   1.260       .  A
O7           Al9   1.907       .  S
O8           C21   1.265       .  A
O8          Al18   1.918   1_455  S
Al9          O22   1.919       .  S
Al9          O19   1.916   1_455  S
Al9          O14   1.792   1_455  S
O10          C17   1.254   1_655  A
O10         Al18   1.887       .  S
O11          C20   1.253       .  A
O11         Al18   1.891       .  S
O12         Al18   1.889       .  S
O13          C20   1.257       .  A
O14         Al18   1.795       .  S
O15          C16   1.269   1_655  A
C16         C537   1.447       .  S
C17         C528   1.422       .  S
C20         C532   1.436       .  S
C21          O22   1.262       .  A
C21         C541   1.445       .  S
O23          C38   1.263   1_565  A
O23         Al31   1.899       .  S
C24          O34   1.258       .  A
C24          O25   1.266       .  A
C24         C505   1.441       .  S
O25         Al27   1.931       .  S
O26          C28   1.252       .  A
O26         Al27   1.891       .  S
Al27         O35   1.906       .  S
Al27         O37   1.937       .  S
Al27         O36   1.794       .  S
C28          O41   1.256       .  A
C28         C516   1.441       .  S
O29          C39   1.260       .  A
O29         Al31   1.907   1_545  S
O30          C43   1.265   1_545  A
O30         Al40   1.918       .  S
Al31         O44   1.919       .  S
Al31         O41   1.916   1_565  S
Al31         O36   1.792   1_565  S
O32          C39   1.254       .  A
O32         Al40   1.887       .  S
O33          C42   1.253       .  A
O33         Al40   1.891       .  S
O34         Al40   1.889       .  S
O35          C42   1.257       .  A
O36         Al40   1.795       .  S
O37          C38   1.269       .  A
C38         C520   1.447   1_545  S
C39         C509   1.422       .  S
C42         C529   1.436       .  S
C43          O44   1.262       .  A
C43         C504   1.445       .  S
O45          C60   1.262       .  A
O45         Al53   1.919       .  S
C46          O56   1.266       .  A
C46          O47   1.258       .  A
C46         C500   1.441       .  S
O47         Al49   1.889       .  S
O48          C50   1.254       .  A
O48         Al49   1.886       .  S
Al49         O57   1.891       .  S
Al49         O59   1.918   1_455  S
Al49         O58   1.795       .  S
C50          O63   1.260       .  A
C50         C525   1.422       .  S
O51          C61   1.256       .  A
O51         Al53   1.916   1_455  S
O52          C65   1.269   1_455  A
O52         Al62   1.937       .  S
Al53         O66   1.899       .  S
Al53         O63   1.907   1_655  S
Al53         O58   1.792   1_655  S
O54          C61   1.252       .  A
O54         Al62   1.891       .  S
O55          C64   1.257       .  A
O55         Al62   1.907       .  S
O56         Al62   1.931       .  S
O57          C64   1.253       .  A
O58         Al62   1.794       .  S
O59          C60   1.265       .  A
C60         C492   1.444       .  S
C61         C484   1.441       .  S
C64         C493   1.437       .  S
C65          O66   1.263       .  A
C65         C485   1.447       .  S
O67          C82   1.263       .  A
O67         Al75   1.919       .  S
C68          O78   1.266       .  A
C68          O69   1.258       .  A
C68         C465   1.441       .  S
O69         Al71   1.889       .  S
O70          C72   1.254       .  A
O70         Al71   1.886   1_545  S
Al71         O79   1.891       .  S
Al71         O81   1.918   1_565  S
Al71         O80   1.795       .  S
C72          O85   1.260       .  A
C72         C512   1.422       .  S
O73          C83   1.256       .  A
O73         Al75   1.916   1_565  S
O74          C87   1.269   1_565  A
O74         Al84   1.937       .  S
Al75         O88   1.899       .  S
Al75         O85   1.907       .  S
Al75         O80   1.792   1_545  S
O76          C83   1.252       .  A
O76         Al84   1.892       .  S
O77          C86   1.257       .  A
O77         Al84   1.907       .  S
O78         Al84   1.931       .  S
O79          C86   1.253       .  A
O80         Al84   1.794       .  S
O81          C82   1.265       .  A
C82         C469   1.444       .  S
C83         C476   1.441       .  S
C86         C496   1.436       .  S
C87          O88   1.263       .  A
C87         C480   1.447       .  S
O89         C104   1.263       .  A
O89         Al97   1.899       .  S
C90         O100   1.258       .  A
C90          O91   1.266       .  A
C90         C452   1.441       .  S
O91         Al93   1.931       .  S
O92          C94   1.252       .  A
O92         Al93   1.892       .  S
Al93        O101   1.906       .  S
Al93        O103   1.937       .  S
Al93        O102   1.794       .  S
C94         O107   1.256       .  A
C94         C497   1.442       .  S
O95         C105   1.260       .  A
O95         Al97   1.907       .  S
O96         C109   1.265       .  A
O96        Al106   1.918   1_545  S
Al97        O110   1.919       .  S
Al97        O107   1.916   1_545  S
Al97        O102   1.792   1_545  S
O98         C105   1.254       .  A
O98        Al106   1.887   1_545  S
O99         C108   1.253       .  A
O99        Al106   1.891       .  S
O100       Al106   1.889       .  S
O101        C108   1.257       .  A
O102       Al106   1.795       .  S
O103        C104   1.269   1_565  A
C104        C544   1.447       .  S
C105        C456   1.422       .  S
C108        C460   1.436       .  S
C109        O110   1.262       .  A
C109        C461   1.445       .  S
O111        C126   1.263       .  A
O111       Al119   1.899       .  S
C112        O122   1.258       .  A
C112        O113   1.266       .  A
C112        C473   1.441       .  S
O113       Al115   1.931       .  S
O114        C116   1.252       .  A
O114       Al115   1.892       .  S
Al115       O123   1.906       .  S
Al115       O125   1.937       .  S
Al115       O124   1.794       .  S
C116        O129   1.256       .  A
C116        C440   1.441       .  S
O117        C127   1.260       .  A
O117       Al119   1.907       .  S
O118        C131   1.265       .  A
O118       Al128   1.918       .  S
Al119       O132   1.919       .  S
Al119       O129   1.916       .  S
Al119       O124   1.792       .  S
O120        C127   1.254       .  A
O120       Al128   1.887       .  S
O121        C130   1.253       .  A
O121       Al128   1.891       .  S
O122       Al128   1.889       .  S
O123        C130   1.257       .  A
O124       Al128   1.795       .  S
O125        C126   1.269       .  A
C126        C441   1.447       .  S
C127        C445   1.422       .  S
C130        C457   1.436       .  S
C131        O132   1.262       .  A
C131        C517   1.445       .  S
O133        C148   1.263       .  A
O133       Al141   1.919       .  S
C134        O144   1.266       .  A
C134        O135   1.258       .  A
C134        C433   1.441       .  S
O135       Al137   1.889       .  S
O136        C138   1.254       .  A
O136       Al137   1.887       .  S
Al137       O145   1.891       .  S
Al137       O147   1.918       .  S
Al137       O146   1.795       .  S
C138        O151   1.260       .  A
C138        C453   1.422       .  S
O139        C149   1.256       .  A
O139       Al141   1.916   1_545  S
O140        C153   1.269       .  A
O140       Al150   1.937       .  S
Al141       O154   1.899       .  S
Al141       O151   1.907   1_565  S
Al141       O146   1.792   1_565  S
O142        C149   1.252       .  A
O142       Al150   1.891       .  S
O143        C152   1.257       .  A
O143       Al150   1.906       .  S
O144       Al150   1.931       .  S
O145        C152   1.253       .  A
O146       Al150   1.794       .  S
O147        C148   1.265   1_545  A
C148        C425   1.444       .  S
C149        C521   1.441       .  S
C152        C432   1.436       .  S
C153        O154   1.263   1_545  A
C153        C489   1.447   1_545  S
O155        C170   1.262       .  A
O155       Al163   1.919       .  S
C156        O166   1.266       .  A
C156        O157   1.258       .  A
C156        C513   1.441       .  S
O157       Al159   1.889       .  S
O158        C160   1.254       .  A
O158       Al159   1.886       .  S
Al159       O167   1.891       .  S
Al159       O169   1.918       .  S
Al159       O168   1.795       .  S
C160        O173   1.260       .  A
C160        C448   1.422       .  S
O161        C171   1.256       .  A
O161       Al163   1.916       .  S
O162        C175   1.269       .  A
O162       Al172   1.937       .  S
Al163       O176   1.899       .  S
Al163       O173   1.907       .  S
Al163       O168   1.792       .  S
O164        C171   1.252       .  A
O164       Al172   1.891       .  S
O165        C174   1.257       .  A
O165       Al172   1.906       .  S
O166       Al172   1.931       .  S
O167        C174   1.253       .  A
O168       Al172   1.794       .  S
O169        C170   1.265       .  A
C170        C477   1.445       .  S
C171        C417   1.441       .  S
C174        C429   1.436       .  S
C175        O176   1.263       .  A
C175        C424   1.447       .  S
O177        C192   1.263       .  A
O177       Al185   1.899       .  S
C178        O188   1.258       .  A
C178        O179   1.266       .  A
C178        C409   1.441       .  S
O179       Al181   1.931       .  S
O180        C182   1.252       .  A
O180       Al181   1.892       .  S
Al181       O189   1.906       .  S
Al181       O191   1.937       .  S
Al181       O190   1.794       .  S
C182        O195   1.256       .  A
C182        C436   1.442       .  S
O183        C193   1.260       .  A
O183       Al185   1.907       .  S
O184        C197   1.265       .  A
O184       Al194   1.918       .  S
Al185       O198   1.919       .  S
Al185       O195   1.916       .  S
Al185       O190   1.792       .  S
O186        C193   1.254       .  A
O186       Al194   1.887       .  S
O187        C196   1.253       .  A
O187       Al194   1.891       .  S
O188       Al194   1.889       .  S
O189        C196   1.257       .  A
O190       Al194   1.795       .  S
O191        C192   1.269       .  A
C192        C464   1.447       .  S
C193        C401   1.422       .  S
C196        C408   1.436       .  S
C197        O198   1.262       .  A
C197        C413   1.445       .  S
O199        C214   1.263       .  A
O199       Al207   1.899       .  S
C200        O210   1.258       .  A
C200        O201   1.266       .  A
C200        C420   1.441       .  S
O201       Al203   1.931       .  S
O202        C204   1.252       .  A
O202       Al203   1.892       .  S
Al203       O211   1.906       .  S
Al203       O213   1.937       .  S
Al203       O212   1.794       .  S
C204        O217   1.256       .  A
C204        C396   1.442       .  S
O205        C215   1.260       .  A
O205       Al207   1.907       .  S
O206        C219   1.265       .  A
O206       Al216   1.918       .  S
Al207       O220   1.919       .  S
Al207       O217   1.916       .  S
Al207       O212   1.792       .  S
O208        C215   1.254       .  A
O208       Al216   1.887       .  S
O209        C218   1.253       .  A
O209       Al216   1.891       .  S
O210       Al216   1.889       .  S
O211        C218   1.257       .  A
O212       Al216   1.795       .  S
O213        C214   1.269       .  A
C214        C397   1.447       .  S
C215        C389   1.422       .  S
C218        C405   1.436       .  S
C219        O220   1.263       .  A
C219        C444   1.445       .  S
O221        C236   1.262       .  A
O221       Al229   1.919       .  S
C222        O232   1.266       .  A
C222        O223   1.258       .  A
C222        C437   1.441       .  S
O223       Al225   1.889       .  S
O224        C226   1.254       .  A
O224       Al225   1.887       .  S
Al225       O233   1.891       .  S
Al225       O235   1.918       .  S
Al225       O234   1.795       .  S
C226        O239   1.260       .  A
C226        C392   1.422       .  S
O227        C237   1.256       .  A
O227       Al229   1.916       .  S
O228        C241   1.269       .  A
O228       Al238   1.937       .  S
Al229       O242   1.899       .  S
Al229       O239   1.907       .  S
Al229       O234   1.792       .  S
O230        C237   1.252       .  A
O230       Al238   1.891       .  S
O231        C240   1.257       .  A
O231       Al238   1.906       .  S
O232       Al238   1.931       .  S
O233        C240   1.253       .  A
O234       Al238   1.794       .  S
O235        C236   1.265       .  A
C236        C421   1.445       .  S
C237        C380   1.441       .  S
C240        C385   1.436       .  S
C241        O242   1.263       .  A
C241        C381   1.447       .  S
O243        C258   1.262       .  A
O243       Al251   1.919       .  S
C244        O254   1.266       .  A
C244        O245   1.258       .  A
C244        C373   1.441       .  S
O245       Al247   1.889       .  S
O246        C248   1.254       .  A
O246       Al247   1.886       .  S
Al247       O255   1.891       .  S
Al247       O257   1.918       .  S
Al247       O256   1.795       .  S
C248        O261   1.260       .  A
C248        C404   1.422       .  S
O249        C259   1.256       .  A
O249       Al251   1.916       .  S
O250        C263   1.269       .  A
O250       Al260   1.937       .  S
Al251       O264   1.899       .  S
Al251       O261   1.907       .  S
Al251       O256   1.792       .  S
O252        C259   1.252       .  A
O252       Al260   1.891       .  S
O253        C262   1.257       .  A
O253       Al260   1.906       .  S
O254       Al260   1.931       .  S
O255        C262   1.253       .  A
O256       Al260   1.794       .  S
O257        C258   1.265       .  A
C258        C369   1.445       .  S
C259        C449   1.441       .  S
C262        C388   1.436       .  S
C263        O264   1.263       .  A
C263        C428   1.447       .  S
O265        C280   1.263       .  A
O265       Al273   1.899       .  S
C266        O276   1.258       .  A
C266        O267   1.266       .  A
C266        C481   1.441       .  S
O267       Al269   1.931       .  S
O268        C270   1.252       .  A
O268       Al269   1.892       .  S
Al269       O277   1.906       .  S
Al269       O279   1.937       .  S
Al269       O278   1.794       .  S
C270        O283   1.256       .  A
C270        C376   1.442       .  S
O271        C281   1.260       .  A
O271       Al273   1.907       .  S
O272        C285   1.265       .  A
O272       Al282   1.918       .  S
Al273       O286   1.919       .  S
Al273       O283   1.916       .  S
Al273       O278   1.792       .  S
O274        C281   1.254       .  A
O274       Al282   1.887       .  S
O275        C284   1.253       .  A
O275       Al282   1.891       .  S
O276       Al282   1.889       .  S
O277        C284   1.257       .  A
O278       Al282   1.795       .  S
O279        C280   1.269       .  A
C280        C416   1.447       .  S
C281        C364   1.422       .  S
C284        C368   1.436       .  S
C285        O286   1.262       .  A
C285        C540   1.445       .  S
O287        C302   1.263       .  A
O287       Al295   1.899       .  S
C288        O298   1.258       .  A
C288        O289   1.266       .  A
C288        C377   1.441       .  S
O289       Al291   1.931       .  S
O290        C292   1.252       .  A
O290       Al291   1.891       .  S
Al291       O299   1.906       .  S
Al291       O301   1.937       .  S
Al291       O300   1.794       .  S
C292        O305   1.256       .  A
C292        C468   1.441       .  S
O293        C303   1.260       .  A
O293       Al295   1.907   1_455  S
O294        C307   1.265       .  A
O294       Al304   1.918   1_655  S
Al295       O308   1.919       .  S
Al295       O305   1.916   1_655  S
Al295       O300   1.792   1_655  S
O296        C303   1.254       .  A
O296       Al304   1.887       .  S
O297        C306   1.253       .  A
O297       Al304   1.891       .  S
O298       Al304   1.889       .  S
O299        C306   1.257       .  A
O300       Al304   1.795       .  S
O301        C302   1.269   1_455  A
C302        C501   1.447       .  S
C303        C357   1.422       .  S
C306        C365   1.436       .  S
C307        O308   1.262       .  A
C307        C400   1.445       .  S
O309        C324   1.262       .  A
O309       Al317   1.919       .  S
C310        O320   1.266       .  A
C310        O311   1.258       .  A
C310        C393   1.441       .  S
O311       Al313   1.889       .  S
O312        C314   1.254   1_655  A
O312       Al313   1.887       .  S
Al313       O321   1.891       .  S
Al313       O323   1.918   1_655  S
Al313       O322   1.795       .  S
C314        O327   1.260       .  A
C314        C360   1.422       .  S
O315        C325   1.256       .  A
O315       Al317   1.916   1_655  S
O316        C329   1.269   1_655  A
O316       Al326   1.937       .  S
Al317       O330   1.899       .  S
Al317       O327   1.907       .  S
Al317       O322   1.792   1_455  S
O318        C325   1.252       .  A
O318       Al326   1.891       .  S
O319        C328   1.257       .  A
O319       Al326   1.906       .  S
O320       Al326   1.931       .  S
O321        C328   1.253       .  A
O322       Al326   1.794       .  S
O323        C324   1.265       .  A
C324        C384   1.444       .  S
C325        C508   1.441       .  S
C328        C353   1.436       .  S
C329        O330   1.263       .  A
C329        C472   1.447       .  S
O331        C346   1.263       .  A
O331       Al339   1.919       .  S
C332        O342   1.266       .  A
C332        O333   1.258       .  A
C332        C536   1.441       .  S
O333       Al335   1.889       .  S
O334        C336   1.254       .  A
O334       Al335   1.886       .  S
Al335       O343   1.891       .  S
Al335       O345   1.918       .  S
Al335       O344   1.795       .  S
C336        O349   1.260       .  A
C336        C361   1.422       .  S
O337        C347   1.256       .  A
O337       Al339   1.916       .  S
O338        C351   1.269       .  A
O338       Al348   1.937       .  S
Al339       O352   1.899       .  S
Al339       O349   1.907       .  S
Al339       O344   1.792       .  S
O340        C347   1.252       .  A
O340       Al348   1.892       .  S
O341        C350   1.257       .  A
O341       Al348   1.907       .  S
O342       Al348   1.931       .  S
O343        C350   1.253       .  A
O344       Al348   1.794       .  S
O345        C346   1.265       .  A
C346        C488   1.445       .  S
C347        C412   1.441       .  S
C350        C356   1.436       .  S
C351        O352   1.263       .  A
C351        C372   1.447       .  S
C353        C354   1.207       .  T
C354        C355   1.414       .  S
C355        C356   1.207       .  T
C357        C358   1.199       .  T
C358        C359   1.402       .  S
C359        C360   1.199       .  T
C361        C362   1.199       .  T
C362        C363   1.402   1_654  S
C363        C364   1.199       .  T
C365        C366   1.207       .  T
C366        C367   1.414       .  S
C367        C368   1.207       .  T
C369        C370   1.212       .  T
C370        C371   1.423       .  S
C371        C372   1.213       .  T
C373        C374   1.209       .  T
C374        C375   1.418       .  S
C375        C376   1.210   1_554  T
C377        C378   1.209       .  T
C378        C379   1.418       .  S
C379        C380   1.209       .  T
C381        C382   1.213       .  T
C382        C383   1.423       .  S
C383        C384   1.212       .  T
C385        C386   1.207       .  T
C386        C387   1.414       .  S
C387        C388   1.207       .  T
C389        C390   1.199       .  T
C390        C391   1.402       .  S
C391        C392   1.199       .  T
C393        C394   1.209       .  T
C394        C395   1.418       .  S
C395        C396   1.210       .  T
C397        C398   1.213       .  T
C398        C399   1.423       .  S
C399        C400   1.212       .  T
C401        C402   1.199       .  T
C402        C403   1.402   1_556  S
C403        C404   1.199       .  T
C405        C406   1.207       .  T
C406        C407   1.414       .  S
C407        C408   1.207       .  T
C409        C410   1.209       .  T
C410        C411   1.418       .  S
C411        C412   1.209   1_556  T
C413        C414   1.212       .  T
C414        C415   1.423       .  S
C415        C416   1.213       .  T
C417        C418   1.209       .  T
C418        C419   1.418       .  S
C419        C420   1.209       .  T
C421        C422   1.212       .  T
C422        C423   1.423       .  S
C423        C424   1.213       .  T
C425        C426   1.212       .  T
C426        C427   1.423       .  S
C427        C428   1.213       .  T
C429        C430   1.207       .  T
C430        C431   1.414       .  S
C431        C432   1.207       .  T
C433        C434   1.209       .  T
C434        C435   1.418       .  S
C435        C436   1.209   1_554  T
C437        C438   1.209       .  T
C438        C439   1.418       .  S
C439        C440   1.209       .  T
C441        C442   1.213       .  T
C442        C443   1.423       .  S
C443        C444   1.212       .  T
C445        C446   1.199       .  T
C446        C447   1.402   1_565  S
C447        C448   1.199       .  T
C449        C450   1.209   1_554  T
C450        C451   1.418       .  S
C451        C452   1.209       .  T
C453        C454   1.199       .  T
C454        C455   1.402   1_554  S
C455        C456   1.199       .  T
C457        C458   1.207       .  T
C458        C459   1.414       .  S
C459        C460   1.207       .  T
C461        C462   1.212       .  T
C462        C463   1.423       .  S
C463        C464   1.213       .  T
C465        C466   1.209       .  T
C466        C467   1.418       .  S
C467        C468   1.209       .  T
C469        C470   1.212       .  T
C470        C471   1.423       .  S
C471        C472   1.213       .  T
C473        C474   1.209       .  T
C474        C475   1.418       .  S
C475        C476   1.209       .  T
C477        C478   1.212       .  T
C478        C479   1.423       .  S
C479        C480   1.213       .  T
C481        C482   1.209       .  T
C482        C483   1.418       .  S
C483        C484   1.209   1_556  T
C485        C486   1.213       .  T
C486        C487   1.423       .  S
C487        C488   1.212       .  T
C489        C490   1.213       .  T
C490        C491   1.423       .  S
C491        C492   1.212       .  T
C493        C494   1.207       .  T
C494        C495   1.414       .  S
C495        C496   1.207       .  T
C497        C498   1.210   1_556  T
C498        C499   1.418       .  S
C499        C500   1.209       .  T
C501        C502   1.213       .  T
C502        C503   1.423       .  S
C503        C504   1.212       .  T
C505        C506   1.209       .  T
C506        C507   1.418       .  S
C507        C508   1.209       .  T
C509        C510   1.199       .  T
C510        C511   1.402   1_655  S
C511        C512   1.199       .  T
C513        C514   1.209       .  T
C514        C515   1.418       .  S
C515        C516   1.209       .  T
C517        C518   1.212       .  T
C518        C519   1.423       .  S
C519        C520   1.213       .  T
C521        C522   1.209   1_554  T
C522        C523   1.418       .  S
C523        C524   1.209       .  T
C525        C526   1.199       .  T
C526        C527   1.402   1_564  S
C527        C528   1.199       .  T
C529        C530   1.207       .  T
C530        C531   1.414       .  S
C531        C532   1.207       .  T
C533        C534   1.209   1_556  T
C534        C535   1.418       .  S
C535        C536   1.209       .  T
C537        C538   1.213       .  T
C538        C539   1.423       .  S
C539        C540   1.212       .  T
C541        C542   1.212       .  T
C542        C543   1.423       .  S
C543        C544   1.213       .  T
