geometry optimzed in LAMMPS
_audit_creation_date              2020-11-30 
_audit_creation_method            'lammps2cif' 
_symmetry_space_group_name_H-M    'P1' 
_symmetry_Int_Tables_number       1 
_symmetry_cell_setting            triclinic 
loop_ 
_symmetry_equiv_pos_as_xyz 
  x,y,z 
_cell_length_a                    45.94731010392271 
_cell_length_b                    45.92402940048462 
_cell_length_c                    43.568353993663436 
_cell_angle_alpha                 90.4682958369891 
_cell_angle_beta                  88.94412320937668 
_cell_angle_gamma                 89.99160939152844 
loop_ 
_atom_site_label 
_atom_site_type_symbol 
_atom_site_fract_x 
_atom_site_fract_y 
_atom_site_fract_z 
_atom_site_charge 
Fe1        Fe  0.46106144  0.46781813  0.29036577     1.65780
Fe2        Fe  0.41786114  0.45229043  0.23245528     1.73250
Fe3        Fe  0.44079505  0.02085681  0.24256578     1.54410
O4          O  0.43883893  0.03530513  0.28894776    -0.81820
O5          O  0.43953399  0.46166853  0.19278424    -0.80130
O6          O  0.43527177  0.49449325  0.31635180    -0.84330
O7          O  0.49275766  0.49976317  0.28590750    -0.79180
O8          O  0.39600828  0.02326897  0.24480773    -0.80960
O9          O  0.44886958  0.41931069  0.23929741    -0.83700
C10         C  0.50267174  0.01150281  0.26163862     0.97060
C11         C  0.43023234  0.02138177  0.31284709     1.04500
O12         O  0.44022561  0.48041426  0.25457948    -1.12690
O13         O  0.39531035  0.44246450  0.27171445    -0.75120
O14         O  0.43304083  0.43364024  0.30081766    -0.78600
O15         O  0.48593251  0.01948754  0.24038215    -0.79290
C16         C  0.40696190  0.42882048  0.29328695     0.95970
O17         O  0.48595412  0.43987229  0.26379471    -0.77250
O18         O  0.38394422  0.48114213  0.22285506    -0.82440
C19         C  0.44305536  0.98613892  0.18012999     0.98590
C20         C  0.37712941  0.00572422  0.23464336     1.04510
O21         O  0.44104579  0.01025849  0.19504434    -0.78090
C22         C  0.47511613  0.41884915  0.24858759     1.02810
Fe23       Fe  0.22265797  0.44804877  0.27271560     1.65780
Fe24       Fe  0.16920092  0.44893570  0.22234774     1.73250
Fe25       Fe  0.18922620  0.01121792  0.25702093     1.54410
O26         O  0.19485691  0.00713337  0.30491094    -0.81820
O27         O  0.18176202  0.47523469  0.18694439    -0.80130
O28         O  0.20356221  0.45985188  0.31278662    -0.84330
O29         O  0.25152276  0.48200259  0.27534591    -0.79180
O30         O  0.14495898  0.00793437  0.26619027    -0.80960
O31         O  0.20208640  0.41874243  0.21020138    -0.83700
C32         C  0.25504305  0.00428535  0.25885927     0.97060
C33         C  0.19461604  0.48447162  0.32188902     1.04500
O34         O  0.19364378  0.46974927  0.25051247    -1.12690
O35         O  0.15477663  0.42343461  0.25777688    -0.75120
O36         O  0.19794167  0.41055425  0.27494209    -0.78600
O37         O  0.23364272  0.01730908  0.24686953    -0.79290
C38         C  0.17053570  0.40760878  0.27438587     0.95970
O39         O  0.24209102  0.43506755  0.23237521    -0.77250
O40         O  0.13317687  0.47550317  0.23029324    -0.82440
C41         C  0.17721953  0.00253610  0.18664166     0.98590
C42         C  0.12624712  0.99547229  0.24944350     1.04510
O43         O  0.17963441  0.01845135  0.21072473    -0.78090
C44         C  0.22957483  0.41781215  0.21404098     1.02810
Fe45       Fe  0.42679471  0.32758169  0.52428070     1.65780
Fe46       Fe  0.42500554  0.27410514  0.47293496     1.73250
Fe47       Fe  0.36326461  0.29538333  0.50963724     1.54410
O48         O  0.36921781  0.30125302  0.55777993    -0.81820
O49         O  0.39764799  0.28502077  0.43835470    -0.80130
O50         O  0.41733322  0.30656768  0.56337441    -0.84330
O51         O  0.39137079  0.35369481  0.53209872    -0.79180
O52         O  0.36585462  0.25088049  0.51782976    -0.80960
O53         O  0.45392505  0.30791751  0.46007509    -0.83700
C54         C  0.37346329  0.36025638  0.51184290     0.97060
C55         C  0.39256508  0.29891884  0.57344611     1.04500
O56         O  0.40468063  0.29867448  0.50195576    -1.12690
O57         O  0.45175987  0.26089362  0.50736495    -0.75120
O58         O  0.46524134  0.30486574  0.52210746    -0.78600
O59         O  0.35861271  0.34017962  0.49933442    -0.79290
C60         C  0.46810292  0.27751542  0.52268509     0.95970
O61         O  0.43727462  0.34783287  0.48383831    -0.77250
O62         O  0.39911623  0.23799266  0.48225613    -0.82440
C63         C  0.37012370  0.28196302  0.43896368     0.98590
C64         C  0.37886660  0.23162981  0.50139324     1.04510
O65         O  0.35471047  0.28553041  0.46348512    -0.78090
C66         C  0.45463159  0.33549733  0.46478721     1.02810
Fe67       Fe  0.40726844  0.06726607  0.54274685     1.65780
Fe68       Fe  0.42580621  0.02675442  0.48240618     1.73250
Fe69       Fe  0.35613750  0.04526349  0.49316043     1.54420
O70         O  0.34036632  0.04289783  0.53918989    -0.81820
O71         O  0.41621994  0.05027033  0.44458650    -0.80130
O72         O  0.38048821  0.04059503  0.56725936    -0.84330
O73         O  0.37476881  0.09834486  0.53829960    -0.79180
O74         O  0.35600506  0.50008949  0.49396246    -0.80960
O75         O  0.45765656  0.05777974  0.49214976    -0.83700
C76         C  0.36347766  0.10779666  0.51392398     0.97060
C77         C  0.35379025  0.03513781  0.56333248     1.04500
O78         O  0.39629562  0.04667136  0.50584619    -1.12690
O79         O  0.43579648  0.00280791  0.51989042    -0.75120
O80         O  0.44154694  0.03937046  0.55265205    -0.78600
O81         O  0.35594933  0.09059174  0.49239657    -0.79290
C82         C  0.44744996  0.01373036  0.54335197     0.95970
O83         O  0.43541465  0.09352622  0.51826775    -0.77250
O84         O  0.39831157  0.49291597  0.46960537    -0.82440
C85         C  0.39199993  0.05025603  0.43127928     0.98590
C86         C  0.37528617  0.48317738  0.48256090     1.04510
O87         O  0.36791756  0.04562170  0.44576814    -0.78090
C88         C  0.45708505  0.08369962  0.50285830     1.02810
Fe89       Fe  0.21035472  0.22039416  0.79932527     1.65780
Fe90       Fe  0.17019610  0.19998194  0.74166470     1.73250
Fe91       Fe  0.19082217  0.26893089  0.74566557     1.54410
O92         O  0.18875846  0.28744882  0.79051751    -0.81820
O93         O  0.19634044  0.20656559  0.70491231    -0.80130
O94         O  0.18387792  0.24917908  0.82168337    -0.84330
O95         O  0.24224019  0.25204408  0.79192083    -0.79180
O96         O  0.14605346  0.27105107  0.74726000    -0.80960
O97         O  0.20004623  0.16751615  0.75373575    -0.83700
C98         C  0.25241965  0.26089874  0.76628496     0.97060
C99         C  0.17942370  0.27571819  0.81547155     1.04500
O100        O  0.19049222  0.22999785  0.76219199    -1.12690
O101        O  0.14503368  0.19403974  0.77975884    -0.75120
O102        O  0.18133248  0.18678383  0.81135642    -0.78600
O103        O  0.23584566  0.26714138  0.74419083    -0.79290
C104        C  0.15568218  0.18117907  0.80238642     0.95970
O105        O  0.23644446  0.19064693  0.77636963    -0.77250
O106        O  0.13725623  0.22780740  0.72626996    -0.82440
C107        C  0.19373206  0.22816018  0.68763670     0.98590
C108        C  0.12855854  0.25266637  0.73600055     1.04510
O109        O  0.19018090  0.25389328  0.69881739    -0.78090
C110        C  0.22638648  0.16845339  0.76255486     1.02810
Fe111      Fe  0.47599496  0.19775079  0.77181844     1.65780
Fe112      Fe  0.41852692  0.19683759  0.72614741     1.73250
Fe113      Fe  0.43970379  0.26038177  0.75763830     1.54420
O114        O  0.44702886  0.25700790  0.80527783    -0.81820
O115        O  0.42861472  0.22221541  0.68909852    -0.80130
O116        O  0.46133414  0.21111912  0.81347279    -0.84330
O117        O  0.50535189  0.23114487  0.76933168    -0.79180
O118        O  0.39566528  0.25726010  0.76886211    -0.80960
O119        O  0.45022950  0.16608572  0.71253906    -0.83700
C120        C  0.50636501  0.25413834  0.75369705     0.97060
C121        C  0.45066962  0.23501388  0.82275121     1.04500
O122        O  0.44471887  0.21870990  0.75182070    -1.12690
O123        O  0.40681446  0.17208044  0.76323578    -0.75120
O124        O  0.45123696  0.16064874  0.77841680    -0.78600
O125        O  0.48356351  0.26750593  0.74544359    -0.79290
C126        C  0.42390986  0.15667664  0.77885646     0.95970
O127        O  0.49178536  0.18301691  0.73038410    -0.77250
O128        O  0.38275191  0.22321529  0.73535386    -0.82440
C129        C  0.42555454  0.24972998  0.68783149     0.98590
C130        C  0.37634689  0.24395062  0.75370645     1.04510
O131        O  0.42864581  0.26633665  0.71135471    -0.78090
C132        C  0.47787418  0.16498236  0.71419558     1.02810
Fe133      Fe  0.15812934  0.31730164  0.04460660     1.65780
Fe134      Fe  0.17646877  0.27851003  0.98302644     1.73250
Fe135      Fe  0.10681819  0.29618350  0.99465993     1.54420
O136        O  0.09127076  0.29230439  0.04059048    -0.81820
O137        O  0.16676270  0.30333304  0.94624064    -0.80130
O138        O  0.13152623  0.28985803  0.06841218    -0.84330
O139        O  0.12557848  0.34855543  0.04109917    -0.79180
O140        O  0.10711400  0.25092930  0.99416043    -0.80960
O141        O  0.20842651  0.30906307  0.99391794    -0.83700
C142        C  0.11406311  0.35837792  0.01698322     0.97060
C143        C  0.10493820  0.28394665  0.06434065     1.04500
O144        O  0.14701563  0.29767209  0.00718425    -1.12690
O145        O  0.18634521  0.25334727  0.01967695    -0.75120
O146        O  0.19254848  0.28909829  0.05335461    -0.78600
O147        O  0.10621351  0.34148209  0.99531727    -0.79290
C148        C  0.19840695  0.26371561  0.04318119     0.95970
O149        O  0.18621427  0.34425524  0.02085887    -0.77250
O150        O  0.14895965  0.24530184  0.96871650    -0.82440
C151        C  0.14252782  0.30375648  0.93293619     0.98590
C152        C  0.12645604  0.23466280  0.98184753     1.04510
O153        O  0.11850002  0.29824877  0.94722259    -0.78090
C154        C  0.20798916  0.33466001  0.00544357     1.02810
Fe155      Fe  0.18094288  0.07772013  0.02520948     1.65780
Fe156      Fe  0.18021309  0.02200637  0.97647634     1.73250
Fe157      Fe  0.11729168  0.04611277  0.00882705     1.54420
O158        O  0.12093561  0.05331255  0.05687803    -0.81820
O159        O  0.15503487  0.03274946  0.93999639    -0.80130
O160        O  0.16857525  0.05980269  0.06511354    -0.84330
O161        O  0.14676212  0.10609388  0.02912975    -0.79180
O162        O  0.11824082  0.50184245  0.01870633    -0.80960
O163        O  0.21086304  0.05416596  0.96354804    -0.83700
C164        C  0.12831219  0.11137994  0.00894267     0.97060
C165        C  0.14331599  0.05263369  0.07413115     1.04500
O166        O  0.15911140  0.04826716  0.00335013    -1.12690
O167        O  0.20504115  0.00925565  0.01284459    -0.75120
O168        O  0.21849965  0.05343540  0.02703818    -0.78600
O169        O  0.11376182  0.09066654  0.99714240    -0.79290
C170        C  0.22118656  0.02606179  0.02824767     0.95970
O171        O  0.19410339  0.09534404  0.98432688    -0.77250
O172        O  0.15283801  0.48697928  0.98557078    -0.82440
C173        C  0.12741765  0.03150177  0.93876925     0.98590
C174        C  0.13149013  0.48176717  0.00372000     1.04510
O175        O  0.11089311  0.03540227  0.96243549    -0.78090
C176        C  0.21177789  0.08188420  0.96659758     1.02810
Fe177      Fe  0.10879982  0.16921515  0.54376393     1.65780
Fe178      Fe  0.09467352  0.21011508  0.48400389     1.73250
Fe179      Fe  0.16266979  0.18706427  0.49481852     1.54420
O180        O  0.17628944  0.18840106  0.54110021    -0.81820
O181        O  0.10476216  0.18687046  0.44530232    -0.80130
O182        O  0.13515880  0.19543788  0.56842919    -0.84330
O183        O  0.14103787  0.13809617  0.54030197    -0.79180
O184        O  0.16566974  0.23202121  0.49604738    -0.80960
O185        O  0.06134042  0.17976196  0.49257202    -0.83700
C186        C  0.15060989  0.12604932  0.51593674     0.97060
C187        C  0.16262703  0.19638521  0.56569482     1.04500
O188        O  0.12212016  0.18867140  0.50708721    -1.12690
O189        O  0.08418301  0.23402895  0.52226276    -0.75120
O190        O  0.07452471  0.19726749  0.55311075    -0.78600
O191        O  0.15979002  0.14149584  0.49357636    -0.79290
C192        C  0.06998450  0.22305053  0.54437095     0.95970
O193        O  0.08153827  0.14348446  0.51851792    -0.77250
O194        O  0.12434832  0.24306261  0.47281698    -0.82440
C195        C  0.12956004  0.18595167  0.43231592     0.98590
C196        C  0.14868547  0.25046133  0.48414183     1.04510
O197        O  0.15320555  0.18796300  0.44732283    -0.78090
C198        C  0.06085150  0.15380120  0.50293786     1.02810
Fe199      Fe  0.08964227  0.40238308  0.52200629     1.65780
Fe200      Fe  0.08964776  0.46022714  0.47578397     1.73250
Fe201      Fe  0.15261087  0.43861417  0.50707737     1.54420
O202        O  0.14902523  0.43093499  0.55458972    -0.81820
O203        O  0.11576201  0.45032859  0.43856214    -0.80130
O204        O  0.10327470  0.41624947  0.56342953    -0.84330
O205        O  0.12281432  0.37262670  0.51774891    -0.79180
O206        O  0.14883404  0.48229064  0.51828053    -0.80960
O207        O  0.05869760  0.42891521  0.46270087    -0.83700
C208        C  0.14684293  0.37205820  0.50314152     0.97060
C209        C  0.12702620  0.42682725  0.57246411     1.04500
O210        O  0.11098199  0.43363823  0.50147355    -1.12690
O211        O  0.06429088  0.47190886  0.51292056    -0.75120
O212        O  0.05290529  0.42775751  0.52999759    -0.78600
O213        O  0.16044422  0.39502887  0.49530697    -0.79290
C214        C  0.04881620  0.45509906  0.52940504     0.95970
O215        O  0.07429932  0.38708151  0.48118879    -0.77250
O216        O  0.11582728  0.49605287  0.48466495    -0.82440
C217        C  0.14333494  0.45332425  0.43739969     0.98590
C218        C  0.13575046  0.00184685  0.50350446     1.04510
O219        O  0.15924194  0.44989671  0.46091416    -0.78090
C220        C  0.05681547  0.40132726  0.46501774     1.02810
Fe221      Fe  0.31375944  0.01532304  0.79541284     1.65780
Fe222      Fe  0.35514672  0.03242965  0.73524470     1.73250
Fe223      Fe  0.33250972  0.46352234  0.74409605     1.54420
O224        O  0.33405805  0.44780035  0.78988358    -0.81820
O225        O  0.33262223  0.02369149  0.69649071    -0.80130
O226        O  0.33988203  0.48780955  0.81869919    -0.84330
O227        O  0.28243750  0.48337605  0.79102978    -0.79180
O228        O  0.37745837  0.46144212  0.74458383    -0.80960
O229        O  0.32420058  0.06523972  0.74549159    -0.83700
C230        C  0.27120193  0.47394162  0.76652352     0.97060
C231        C  0.34265061  0.46062199  0.81438732     1.04500
O232        O  0.33351630  0.00372629  0.75773292    -1.12690
O233        O  0.37865337  0.04167529  0.77333367    -0.75120
O234        O  0.34184766  0.04927790  0.80565738    -0.78600
O235        O  0.28711517  0.46533986  0.74399604    -0.79290
C236        C  0.36756872  0.05460708  0.79637642     0.95970
O237        O  0.28814438  0.04380707  0.77190288    -0.77250
O238        O  0.38877310  0.00365439  0.72254046    -0.82440
C239        C  0.33002113  0.49941173  0.68289993     0.98590
C240        C  0.39609410  0.47946118  0.73422689     1.04510
O241        O  0.33252143  0.47510061  0.69690605    -0.78090
C242        C  0.29826143  0.06520153  0.75673890     1.02810
Fe243      Fe  0.05062150  0.03742459  0.77405083     1.65780
Fe244      Fe  0.10678267  0.03551216  0.72468212     1.73250
Fe245      Fe  0.08349689  0.47343354  0.75853820     1.54420
O246        O  0.07671249  0.47894551  0.80655503    -0.81820
O247        O  0.09819974  0.50784295  0.68869314    -0.80130
O248        O  0.06878375  0.02664706  0.81405747    -0.84330
O249        O  0.02174329  0.50358431  0.77777458    -0.79180
O250        O  0.12766298  0.47520371  0.76721295    -0.80960
O251        O  0.07374452  0.06428950  0.71068583    -0.83700
C252        C  0.01782148  0.48172840  0.76060383     0.97060
C253        C  0.07729577  0.50210179  0.82322476     1.04500
O254        O  0.08048813  0.01505712  0.75205768    -1.12690
O255        O  0.11846616  0.06272560  0.76005909    -0.75120
O256        O  0.07433728  0.07557083  0.77574392    -0.78600
O257        O  0.03923125  0.46817963  0.74832380    -0.79290
C258        C  0.10166573  0.07887003  0.77600888     0.95970
O259        O  0.03275421  0.04908082  0.73343600    -0.77250
O260        O  0.14257045  0.51031960  0.73542522    -0.82440
C261        C  0.09878480  0.48010396  0.68844748     0.98590
C262        C  0.14766954  0.48943780  0.75349949     1.04510
O263        O  0.09367720  0.46494160  0.71240772    -0.78090
C264        C  0.04607647  0.06550268  0.71459453     1.02810
Fe265      Fe  0.05852338  0.26764786  0.29201513     1.65780
Fe266      Fe  0.10375594  0.28199204  0.23406271     1.73250
Fe267      Fe  0.08165546  0.21336726  0.24523881     1.54410
O268        O  0.08327735  0.20063597  0.29199600    -0.81820
O269        O  0.08386628  0.27118585  0.19440526    -0.80130
O270        O  0.08393093  0.24246330  0.31857750    -0.84330
O271        O  0.02767139  0.23494645  0.28848655    -0.79180
O272        O  0.12642244  0.21150828  0.24654217    -0.80960
O273        O  0.07198871  0.31461118  0.24029794    -0.83700
C274        C  0.01887660  0.22232686  0.26442597     0.97060
C275        C  0.09054227  0.21576442  0.31556349     1.04500
O276        O  0.08100945  0.25417674  0.25652796    -1.12690
O277        O  0.12451937  0.29310150  0.27336181    -0.75120
O278        O  0.08542755  0.30269628  0.30179897    -0.78600
O279        O  0.03655907  0.21369489  0.24353480    -0.79290
C280        C  0.11181586  0.30737262  0.29452685     0.95970
O281        O  0.03412026  0.29423366  0.26471914    -0.77250
O282        O  0.13846390  0.25358055  0.22483222    -0.82440
C283        C  0.08046194  0.24635087  0.18221197     0.98590
C284        C  0.14529922  0.22891888  0.23572159     1.04510
O285        O  0.08205989  0.22262283  0.19745261    -0.78090
C286        C  0.04535186  0.31500962  0.24935503     1.02810
Fe287      Fe  0.29657843  0.28637107  0.27250658     1.65780
Fe288      Fe  0.35462315  0.28472164  0.22529923     1.73250
Fe289      Fe  0.33245949  0.22290567  0.25961939     1.54420
O290        O  0.32437781  0.22807039  0.30725253    -0.81820
O291        O  0.34449559  0.25796778  0.18937924    -0.80130
O292        O  0.30994211  0.27420313  0.31432484    -0.84330
O293        O  0.26672930  0.25328308  0.27092617    -0.79180
O294        O  0.37620264  0.22655525  0.26975784    -0.80960
O295        O  0.32368190  0.31557678  0.21178165    -0.83700
C296        C  0.26602528  0.22911470  0.25690973     0.97060
C297        C  0.31986550  0.25053228  0.32432520     1.04500
O298        O  0.32785036  0.26428887  0.25243230    -1.12690
O299        O  0.36642272  0.31067395  0.26130710    -0.75120
O300        O  0.32210747  0.32317732  0.27800148    -0.78600
O301        O  0.28892477  0.21527500  0.24883030    -0.79290
C302        C  0.34952972  0.32670782  0.27740119     0.95970
O303        O  0.28173055  0.29988493  0.23108461    -0.77250
O304        O  0.38988382  0.25813095  0.23403229    -0.82440
C305        C  0.34747233  0.23040527  0.18920848     0.98590
C306        C  0.39579373  0.23850789  0.25327281     1.04510
O307        O  0.34388325  0.21495128  0.21334393    -0.78090
C308        C  0.29603978  0.31707266  0.21408219     1.02810
Fe309      Fe  0.34215295  0.15394628  0.02209450     1.65780
Fe310      Fe  0.34370200  0.20982978  0.97356611     1.73250
Fe311      Fe  0.40528758  0.18980048  0.00835649     1.54410
O312        O  0.40014462  0.18267953  0.05591349    -0.81820
O313        O  0.37126656  0.19859282  0.93792500    -0.80130
O314        O  0.35374556  0.16944442  0.06350251    -0.84330
O315        O  0.37584895  0.12465977  0.02137579    -0.79180
O316        O  0.40057757  0.23372204  0.01848227    -0.80960
O317        O  0.31339033  0.17782061  0.96061836    -0.83700
C318        C  0.39997281  0.12341589  0.00699698     0.97060
C319        C  0.37762541  0.17910211  0.07320665     1.04500
O320        O  0.36404632  0.18449531  0.00129141    -1.12690
O321        O  0.31697467  0.22285657  0.00917043    -0.75120
O322        O  0.30487704  0.17915904  0.02693552    -0.78600
O323        O  0.41339803  0.14600857  0.99769586    -0.79290
C324        C  0.30107759  0.20652766  0.02575585     0.95970
O325        O  0.32923601  0.13697297  0.98107329    -0.77250
O326        O  0.36968990  0.24580541  0.98209629    -0.82440
C327        C  0.39871815  0.20261104  0.93786939     0.98590
C328        C  0.38864833  0.25261999  0.00171979     1.04510
O329        O  0.41371711  0.20034648  0.96220149    -0.78090
C330        C  0.31187057  0.15030864  0.96395640     1.02810
Fe331      Fe  0.36191272  0.41854338  0.04618374     1.65780
Fe332      Fe  0.34405069  0.46341789  0.99045701     1.73250
Fe333      Fe  0.41241141  0.43809985  0.99352892     1.54420
O334        O  0.42926331  0.44022282  0.03849642    -0.81820
O335        O  0.35053087  0.44351853  0.94911091    -0.80130
O336        O  0.39004264  0.44410679  0.06958061    -0.84330
O337        O  0.39343309  0.38666933  0.03958970    -0.79180
O338        O  0.41645465  0.48282954  0.99432859    -0.80960
O339        O  0.31141118  0.43226153  0.99918848    -0.83700
C340        C  0.40346127  0.37643078  0.01447103     0.97060
C341        C  0.41671695  0.44891786  0.06348938     1.04500
O342        O  0.37285612  0.43966027  0.00930391    -1.12690
O343        O  0.33718409  0.48450671  0.03134423    -0.75120
O344        O  0.32794246  0.44600656  0.05941942    -0.78600
O345        O  0.41016227  0.39301648  0.99227092    -0.79290
C346        C  0.32287147  0.47217440  0.05245782     0.95970
O347        O  0.33272206  0.39436582  0.02163975    -0.77250
O348        O  0.37268485  0.49715580  0.97934064    -0.82440
C349        C  0.37385971  0.43744105  0.93453835     0.98590
C350        C  0.39879366  0.00258066  0.98672124     1.04510
O351        O  0.39881814  0.43743374  0.94726415    -0.78090
C352        C  0.31132658  0.40568523  0.00783209     1.02810
C353        C  0.40699612  0.08283003  0.96998271    -0.21450
C354        C  0.41072863  0.09390976  0.99980842    -0.09500
C355        C  0.41534387  0.07439243  0.02391705     0.29360
C356        C  0.41446737  0.04433579  0.01854378    -0.21450
C357        C  0.40782567  0.03330977  0.98936091    -0.09510
C358        C  0.40509852  0.05269743  0.96481517     0.29370
F359        F  0.39880829  0.04258134  0.93634997    -0.20030
H360        H  0.40254298  0.09750777  0.95129971     0.17730
H361        H  0.41626109  0.02971715  0.03780525     0.17740
F362        F  0.41776548  0.08440453  0.05317231    -0.20020
C363        C  0.40318117  0.29590098  0.03328585    -0.21450
C364        C  0.39677889  0.28369200  0.00457498    -0.09500
C365        C  0.39665666  0.30182927  0.97864291     0.29360
C366        C  0.40118882  0.33179375  0.98175904    -0.21450
C367        C  0.40543375  0.34437769  0.01078978    -0.09510
C368        C  0.40718641  0.32601509  0.03649923     0.29370
F369        F  0.41183727  0.33724930  0.06490161    -0.20030
H370        H  0.40364599  0.28233282  0.05349447     0.17730
H371        H  0.39966175  0.34536240  0.96163023     0.17740
F372        F  0.39155793  0.29067307  0.95028388    -0.20020
C373        C  0.35253784  0.18637464  0.15519879    -0.21450
C374        C  0.35761850  0.21613025  0.16035659    -0.09500
C375        C  0.37436712  0.23176597  0.13854102     0.29360
C376        C  0.38418190  0.21825347  0.11143045    -0.21450
C377        C  0.37717443  0.18914490  0.10531899    -0.09510
C378        C  0.36190967  0.17304802  0.12777840     0.29370
F379        F  0.35469639  0.14482363  0.12239215    -0.20030
H380        H  0.34036464  0.17367804  0.17188224     0.17730
H381        H  0.39532263  0.23120262  0.09416461     0.17740
F382        F  0.38102872  0.26025552  0.14313656    -0.20020
C383        C  0.22650719  0.22685207  0.21948822    -0.21450
C384        C  0.23692345  0.21888176  0.24833758    -0.09500
C385        C  0.21696935  0.21013413  0.27125490     0.29360
C386        C  0.18701539  0.21079929  0.26581629    -0.21450
C387        C  0.17650224  0.22131044  0.23788604    -0.09510
C388        C  0.19652974  0.22840625  0.21434381     0.29370
F389        F  0.18711595  0.23841281  0.18703128    -0.20030
H390        H  0.24152264  0.23453069  0.20186987     0.17730
H391        H  0.17198047  0.20558970  0.28442832     0.17740
F392        F  0.22633210  0.20357181  0.29975178    -0.20020
C393        C  0.44515075  0.23165538  0.22971557    -0.21450
C394        C  0.42663830  0.22953993  0.25569162    -0.09500
C395        C  0.43838843  0.22053074  0.28362851     0.29360
C396        C  0.46846061  0.21616688  0.28594970    -0.21450
C397        C  0.48712143  0.21984173  0.26030243    -0.09510
C398        C  0.47503326  0.22661810  0.23185247     0.29370
F399        F  0.49234954  0.23094046  0.20670621    -0.20030
H400        H  0.43656682  0.23813268  0.20780333     0.17730
H401        H  0.47736048  0.21110606  0.30813121     0.17740
F402        F  0.42121760  0.21790416  0.30912866    -0.20020
C403        C  0.43639476  0.48089455  0.77015909    -0.21450
C404        C  0.42717040  0.47444209  0.74051513    -0.09500
C405        C  0.44799006  0.46629840  0.71797009     0.29360
C406        C  0.47782812  0.46580260  0.72515699    -0.21450
C407        C  0.48705843  0.47368652  0.75477326    -0.09510
C408        C  0.46574943  0.48023187  0.77746326     0.29370
F409        F  0.47342916  0.98783460  0.80638233    -0.20030
H410        H  0.42071397  0.98829117  0.78738964     0.17730
H411        H  0.49377655  0.46122949  0.70709114     0.17740
F412        F  0.43964341  0.46011008  0.68893769    -0.20020
C413        C  0.22420225  0.49710558  0.78108459    -0.21450
C414        C  0.23902555  0.47499278  0.76458748    -0.09500
C415        C  0.22294310  0.45611433  0.74574656     0.29360
C416        C  0.19267631  0.45982474  0.74327155    -0.21450
C417        C  0.17834443  0.48256187  0.75920845    -0.09510
C418        C  0.19433050  0.50106463  0.77816598     0.29370
F419        F  0.18112117  0.02357470  0.79319821    -0.20030
H420        H  0.23597588  0.01225937  0.79544450     0.17730
H421        H  0.18058535  0.44560299  0.72819175     0.17740
F422        F  0.23637963  0.43430409  0.72977549    -0.20020
C423        C  0.33728109  0.42719345  0.85867064    -0.21450
C424        C  0.35532773  0.44436382  0.83997408    -0.09500
C425        C  0.38272507  0.45287174  0.85092283     0.29360
C426        C  0.39069723  0.44681246  0.88102469    -0.21450
C427        C  0.37103868  0.43299913  0.90101613    -0.09510
C428        C  0.34494245  0.42164280  0.88907006     0.29370
F429        F  0.32551889  0.40771611  0.90766445    -0.20030
H430        H  0.31592344  0.42081138  0.85091609     0.17730
H431        H  0.41070432  0.45599320  0.88963778     0.17740
F432        F  0.40038873  0.47002725  0.83371037    -0.20020
C433        C  0.12481118  0.48021490  0.63763745    -0.21450
C434        C  0.10790021  0.46507920  0.65956970    -0.09500
C435        C  0.10201345  0.43538391  0.65440699     0.29360
C436        C  0.11115389  0.42190381  0.62696750    -0.21450
C437        C  0.12683374  0.43748748  0.60445785    -0.09510
C438        C  0.13436526  0.46657769  0.61047276     0.29370
F439        F  0.14863887  0.98263570  0.58893817    -0.20030
H440        H  0.13040382  0.00287717  0.64131212     0.17730
H441        H  0.10458218  0.39962988  0.62251073     0.17740
F442        F  0.08626097  0.41970516  0.67510634    -0.20020
C443        C  0.11222060  0.16768077  0.38176639    -0.21450
C444        C  0.12953461  0.18726489  0.39853919    -0.09500
C445        C  0.13802892  0.21353745  0.38487586     0.29360
C446        C  0.12692863  0.22132838  0.35649581    -0.21450
C447        C  0.10726587  0.20309783  0.34103057    -0.09510
C448        C  0.10152399  0.17529966  0.35287336     0.29370
F449        F  0.08327320  0.15684676  0.33822388    -0.20030
H450        H  0.10496095  0.14756327  0.39221581     0.17730
H451        H  0.13208558  0.24272745  0.34760458     0.17740
F452        F  0.15350907  0.23355130  0.40090267    -0.20020
C453        C  0.16371790  0.07829909  0.48996821    -0.21450
C454        C  0.14990685  0.09363745  0.51422062    -0.09500
C455        C  0.13316169  0.07772478  0.53597466     0.29360
C456        C  0.12999746  0.04761685  0.53307131    -0.21450
C457        C  0.14312703  0.03263414  0.50851723    -0.09510
C458        C  0.16031951  0.04800081  0.48708827     0.29370
F459        F  0.17319505  0.03377420  0.46301740    -0.20030
H460        H  0.17654590  0.08981068  0.47286249     0.17730
H461        H  0.11623117  0.03609751  0.54938886     0.17740
F462        F  0.11838946  0.09128134  0.55928290    -0.20020
C463        C  0.14512590  0.30053371  0.46240985    -0.21450
C464        C  0.15622801  0.28191740  0.48479899    -0.09500
C465        C  0.17015049  0.29433224  0.51035327     0.29360
C466        C  0.17019318  0.32463808  0.51479523    -0.21450
C467        C  0.15714089  0.34299012  0.49346456    -0.09510
C468        C  0.14569666  0.33077316  0.46659700     0.29370
F469        F  0.13217099  0.34794828  0.44602251    -0.20030
H470        H  0.13430197  0.29160020  0.44255742     0.17730
H471        H  0.17830713  0.33359058  0.53606969     0.17740
F472        F  0.18082431  0.27718982  0.53271699    -0.20020
C473        C  0.11942575  0.01372348  0.85416152    -0.21450
C474        C  0.09105782  0.00256879  0.85327382    -0.09500
C475        C  0.07442510  0.50123093  0.88051783     0.29360
C476        C  0.08611347  0.51114128  0.90824779    -0.21450
C477        C  0.11437489  0.02303977  0.90905262    -0.09510
C478        C  0.13101596  0.02395255  0.88157336     0.29370
F479        F  0.15812899  0.03571826  0.88081968    -0.20030
H480        H  0.13204395  0.01619573  0.83306872     0.17730
H481        H  0.07296608  0.50963401  0.92906081     0.17740
F482        F  0.04653379  0.49155748  0.88002877    -0.20020
C483        C  0.28906968  0.10314445  0.94916957    -0.21450
C484        C  0.28695923  0.13362222  0.95175952    -0.09500
C485        C  0.25924595  0.14660517  0.95063008     0.29360
C486        C  0.23424171  0.12921844  0.95145870    -0.21450
C487        C  0.23642090  0.09872208  0.95328829    -0.09510
C488        C  0.26406891  0.08576091  0.94980744     0.29370
F489        F  0.26730929  0.05641970  0.95115147    -0.20030
H490        H  0.31015779  0.09261708  0.94971447     0.17730
H491        H  0.21320423  0.13975592  0.95365089     0.17740
F492        F  0.25609212  0.17593919  0.95296967    -0.20020
C493        C  0.24471794  0.48407402  0.05357249    -0.21450
C494        C  0.24496426  0.01374308  0.04613772    -0.09500
C495        C  0.26953931  0.03067295  0.05321733     0.29360
C496        C  0.29508230  0.01699868  0.06189410    -0.21450
C497        C  0.29623953  0.48656441  0.06346670    -0.09510
C498        C  0.27019044  0.47052794  0.06285299     0.29370
F499        F  0.27030714  0.44112887  0.06594081    -0.20030
H500        H  0.22554602  0.47089595  0.04973997     0.17730
H501        H  0.31489711  0.02973836  0.06302737     0.17740
F502        F  0.27021058  0.05977842  0.04803912    -0.20020
C503        C  0.11507758  0.43936849  0.03577418    -0.21450
C504        C  0.12212042  0.45100756  0.00688742    -0.09500
C505        C  0.12221545  0.43240719  0.98101157     0.29360
C506        C  0.11693763  0.40256916  0.98426125    -0.21450
C507        C  0.11211767  0.39047074  0.01340778    -0.09510
C508        C  0.11048954  0.40931537  0.03913771     0.29370
F509        F  0.10550684  0.39856018  0.06767758    -0.20030
H510        H  0.11472553  0.45327888  0.05597716     0.17730
H511        H  0.11854765  0.38863871  0.96410993     0.17740
F512        F  0.12818762  0.44298828  0.95257084    -0.20020
C513        C  0.15130763  0.18821702  0.99059678    -0.21450
C514        C  0.12505030  0.20253027  0.98518289    -0.09500
C515        C  0.09897838  0.18624572  0.98610018     0.29360
C516        C  0.09963292  0.15604197  0.99229889    -0.21450
C517        C  0.12611384  0.14224275  0.99902283    -0.09510
C518        C  0.15187462  0.15894610  0.99808387     0.29370
F519        F  0.17796925  0.14726782  0.00526060    -0.20030
H520        H  0.17166473  0.20013328  0.99063362     0.17730
H521        H  0.07948726  0.14382053  0.99312342     0.17740
F522        F  0.07309188  0.19943721  0.98113088    -0.20020
C523        C  0.10509720  0.24279004  0.10068711    -0.21450
C524        C  0.09045103  0.26715925  0.08905008    -0.09500
C525        C  0.06664687  0.27863379  0.10567039     0.29360
C526        C  0.06030049  0.26837729  0.13528488    -0.21450
C527        C  0.07745107  0.24646476  0.14849616    -0.09510
C528        C  0.09856658  0.23232838  0.13010638     0.29370
F529        F  0.11586017  0.21151637  0.14214877    -0.20030
H530        H  0.12354164  0.23361274  0.08811164     0.17730
H531        H  0.04406257  0.27974505  0.14919132     0.17740
F532        F  0.05215313  0.30216899  0.09513584    -0.20020
C533        C  0.25035622  0.20319597  0.04566641    -0.21450
C534        C  0.27600770  0.21948703  0.04210983    -0.09500
C535        C  0.27595312  0.24919100  0.05021468     0.29360
C536        C  0.24968245  0.26319712  0.05694718    -0.21450
C537        C  0.22345539  0.24781611  0.05462846    -0.09510
C538        C  0.22405139  0.21733648  0.05182301     0.29370
F539        F  0.19889165  0.20189343  0.05073118    -0.20030
H540        H  0.25007356  0.18011626  0.04031446     0.17730
H541        H  0.24963230  0.28669573  0.05946271     0.17640
F542        F  0.30078111  0.26520029  0.04870725    -0.20020
C543        C  0.23208878  0.38338981  0.00227117    -0.21450
C544        C  0.23434852  0.35291613  0.00238303    -0.09500
C545        C  0.26217803  0.34003254  0.00150774     0.29360
C546        C  0.28711008  0.35737644  0.00236294    -0.21450
C547        C  0.28489869  0.38785473  0.00329882    -0.09510
C548        C  0.25709660  0.40077543  0.00219737     0.29370
F549        F  0.25391924  0.43015702  0.00253773    -0.20030
H550        H  0.21090349  0.39376303  0.00263344     0.17730
H551        H  0.30822230  0.34689669  0.00287434     0.17740
F552        F  0.26536544  0.31064441  0.00152041    -0.20020
C553        C  0.45617259  0.22583576  0.87854336    -0.21450
C554        C  0.43865092  0.23463541  0.85422450    -0.09500
C555        C  0.40831685  0.23314631  0.85784161     0.29360
C556        C  0.39572923  0.22234965  0.88481310    -0.21450
C557        C  0.41308197  0.21274886  0.90900578    -0.09510
C558        C  0.44359764  0.21541668  0.90591365     0.29370
F559        F  0.46137049  0.20701936  0.92874986    -0.20030
H560        H  0.47964627  0.22566473  0.87570563     0.17730
H561        H  0.37221600  0.22107212  0.88644220     0.17740
F562        F  0.39087404  0.23920355  0.83398978    -0.20020
C563        C  0.02454242  0.14194873  0.69698026    -0.21450
C564        C  0.49418242  0.13986784  0.70104728    -0.09500
C565        C  0.48116638  0.11213136  0.70024207     0.29360
C566        C  0.49857189  0.08714925  0.70025480    -0.21450
C567        C  0.02909234  0.08940269  0.70092604    -0.09510
C568        C  0.04194060  0.11694909  0.69675513     0.29370
F569        F  0.07130153  0.12020953  0.69684317    -0.20030
H570        H  0.03506767  0.16306488  0.69712065     0.17730
H571        H  0.48811607  0.06616382  0.70304699     0.17740
F572        F  0.45191857  0.10901144  0.70382789    -0.20020
C573        C  0.38228491  0.13224944  0.80477604    -0.21450
C574        C  0.41178389  0.13195419  0.79588478    -0.09500
C575        C  0.42802230  0.10620717  0.79887946     0.29360
C576        C  0.41364792  0.08017892  0.80506721    -0.21450
C577        C  0.38322806  0.07982520  0.80831397    -0.09510
C578        C  0.36802117  0.10626339  0.81144936     0.29370
F579        F  0.33865187  0.10668542  0.81554403    -0.20030
H580        H  0.36966938  0.15213972  0.80366996     0.17730
H581        H  0.42570474  0.05993817  0.80309525     0.17740
F582        F  0.45685757  0.10531644  0.79153979    -0.20020
C583        C  0.18035712  0.19253371  0.64790777    -0.21450
C584        C  0.19083349  0.22070492  0.65459903    -0.09500
C585        C  0.19604185  0.23996750  0.63014898     0.29360
C586        C  0.18959411  0.23123870  0.59986128    -0.21450
C587        C  0.17797091  0.20337971  0.59401697    -0.09510
C588        C  0.17386133  0.18409361  0.61829883     0.29370
F589        F  0.16109788  0.15774983  0.61370975    -0.20030
H590        H  0.17547165  0.17711735  0.66597322     0.17730
H591        H  0.19210051  0.24666353  0.58137847     0.17740
F592        F  0.20664374  0.26706419  0.63549766    -0.20020
C593        C  0.04817257  0.24825862  0.71818117    -0.21450
C594        C  0.03573564  0.26313884  0.74348413    -0.09500
C595        C  0.05408567  0.27807087  0.76365338     0.29360
C596        C  0.08442549  0.27671369  0.75943196    -0.21450
C597        C  0.09694906  0.25962662  0.73563771    -0.09510
C598        C  0.07844129  0.24630056  0.71432271     0.29370
F599        F  0.08954007  0.22994012  0.69080132    -0.20030
H600        H  0.03443117  0.23586307  0.70290634     0.17730
H601        H  0.09812526  0.28699951  0.77634379     0.17740
F602        F  0.04280620  0.29160088  0.78900332    -0.20020
C603        C  0.30267999  0.26806839  0.78660412    -0.21450
C604        C  0.28442630  0.26200004  0.76179110    -0.09500
C605        C  0.29706492  0.25281734  0.73372735     0.29360
C606        C  0.32701981  0.24785745  0.73130346    -0.21450
C607        C  0.34522034  0.25257143  0.75648053    -0.09510
C608        C  0.33289433  0.26402281  0.78383203     0.29370
F609        F  0.34966986  0.26998494  0.80834489    -0.20030
H610        H  0.29343017  0.27526367  0.80842460     0.17730
H611        H  0.33594536  0.23962543  0.70973469     0.17740
F612        F  0.28025593  0.24648039  0.70925245    -0.20020
C613        C  0.17712273  0.31471539  0.85548733    -0.21450
C614        C  0.16326369  0.29245728  0.83923840    -0.09500
C615        C  0.13721615  0.28059299  0.85130916     0.29360
C616        C  0.12749748  0.28800944  0.88097503    -0.21450
C617        C  0.14391854  0.30696064  0.89912919    -0.09510
C618        C  0.16751705  0.32200879  0.88529784     0.29370
F619        F  0.18336854  0.34124302  0.90190405    -0.20030
H620        H  0.19720278  0.32404800  0.84662881     0.17730
H621        H  0.10934888  0.27612022  0.89097129     0.17740
F622        F  0.12317661  0.25916188  0.83582486    -0.20020
C623        C  0.23229399  0.11472226  0.75496180    -0.21450
C624        C  0.24512706  0.14238305  0.75792706    -0.09500
C625        C  0.27573317  0.14448722  0.75751239     0.29360
C626        C  0.29291871  0.11932481  0.75533752    -0.21450
C627        C  0.27999504  0.09161362  0.75411011    -0.09510
C628        C  0.24946589  0.08957696  0.75332285     0.29370
F629        F  0.23618364  0.06324788  0.75128515    -0.20030
H630        H  0.20882637  0.11242203  0.75501002     0.17730
H631        H  0.31638236  0.12146367  0.75598437     0.17740
F632        F  0.28909504  0.17078522  0.75951045    -0.20020
C633        C  0.15638858  0.12899544  0.81198657    -0.21450
C634        C  0.14036310  0.15497901  0.81259846    -0.09500
C635        C  0.10998632  0.15379872  0.80947092     0.29360
C636        C  0.09686355  0.12796494  0.80001893    -0.21450
C637        C  0.11395807  0.10322326  0.79370512    -0.09510
C638        C  0.14338302  0.10324726  0.80206559     0.29370
F639        F  0.16016004  0.07916302  0.79815564    -0.20030
H640        H  0.17980610  0.12937440  0.81453956     0.17730
H641        H  0.07392719  0.12822377  0.79470121     0.17740
F642        F  0.09385390  0.17857522  0.81075550    -0.20020
C643        C  0.31128177  0.02409548  0.63649638    -0.21450
C644        C  0.32694607  0.50077967  0.64913521    -0.09500
C645        C  0.34598551  0.98475096  0.62991285     0.29360
C646        C  0.35201788  0.99433107  0.60003018    -0.21450
C647        C  0.33889402  0.01968150  0.58871351    -0.09510
C648        C  0.31710352  0.03345783  0.60643624     0.29370
F649        F  0.30426384  0.05809560  0.59627595    -0.20030
H650        H  0.29659389  0.53687698  0.65094080     0.17730
H651        H  0.36905097  0.98352176  0.58669168     0.17740
F652        F  0.36186384  0.96249691  0.64127358    -0.20020
C653        C  0.01086273  0.08862526  0.49731313    -0.21450
C654        C  0.48333610  0.10198273  0.49898807    -0.09500
C655        C  0.48159703  0.13255917  0.49899181     0.29360
C656        C  0.00702213  0.14931592  0.49854407    -0.21450
C657        C  0.03452443  0.13589735  0.49869640    -0.09510
C658        C  0.03624609  0.10534792  0.49747339     0.29370
F659        F  0.06243605  0.09162862  0.49695078    -0.20030
H660        H  0.01278835  0.06510909  0.49725844     0.17730
H661        H  0.00517163  0.17282887  0.49952967     0.17740
F662        F  0.45539498  0.14624160  0.49986246    -0.20020
C663        C  0.02433953  0.99737905  0.55423845    -0.21450
C664        C  0.02383225  0.46772973  0.54618244    -0.09500
C665        C  0.99760949  0.45212532  0.54886949     0.29360
C666        C  0.47162987  0.46720804  0.55383320    -0.21450
C667        C  0.47180413  0.99770377  0.55619437    -0.09510
C668        C  0.99838093  0.01237579  0.55959403     0.29370
F669        F  0.49926161  0.04182223  0.56255546    -0.20030
H670        H  0.04453720  0.00955004  0.55322073     0.17730
H671        H  0.45124365  0.45557107  0.55161478     0.17740
F672        F  0.99645102  0.42322427  0.54218479    -0.20020
C673        C  0.40436129  0.25669297  0.60434457    -0.21450
C674        C  0.39291792  0.28497263  0.60357840    -0.09500
C675        C  0.39225709  0.30178112  0.63061212     0.29360
C676        C  0.40329273  0.29045350  0.65788133    -0.21450
C677        C  0.41570145  0.26237605  0.65844900    -0.09510
C678        C  0.41574454  0.24547734  0.63126857     0.29370
F679        F  0.42780364  0.21848497  0.63021300    -0.20030
H680        H  0.40635844  0.24394032  0.58334772     0.17730
H681        H  0.40238827  0.30380685  0.67848022     0.17740
F682        F  0.38244194  0.32964285  0.63019586    -0.20020
C683        C  0.34713746  0.40496996  0.49162417    -0.21450
C684        C  0.37235685  0.39139503  0.50259943    -0.09500
C685        C  0.39789569  0.40824399  0.50540818     0.29360
C686        C  0.39834520  0.43734380  0.49718298    -0.21450
C687        C  0.37323297  0.45130989  0.48723745    -0.09510
C688        C  0.34735043  0.43501118  0.48467223     0.29370
F689        F  0.32256623  0.44796935  0.47526199    -0.20030
H690        H  0.32720692  0.39262687  0.48934426     0.17730
H691        H  0.41843257  0.44937967  0.49984818     0.17740
F692        F  0.42283169  0.39677259  0.51639032    -0.20020
C693        C  0.36261014  0.18869408  0.53267883    -0.21450
C694        C  0.37051078  0.20051406  0.50410656    -0.09500
C695        C  0.37195951  0.18191073  0.47820867     0.29360
C696        C  0.36708795  0.15197156  0.48122446    -0.21450
C697        C  0.36126742  0.13981343  0.51014177    -0.09510
C698        C  0.35836789  0.15859271  0.53580497     0.29370
F699        F  0.35239463  0.14772987  0.56410626    -0.20030
H700        H  0.36118915  0.20255617  0.55289210     0.17730
H701        H  0.36970594  0.13805090  0.46116394     0.17740
F702        F  0.37873591  0.19257723  0.44998979    -0.20020
C703        C  0.32640529  0.27721057  0.40556790    -0.21450
C704        C  0.35594589  0.27158811  0.41060043    -0.09500
C705        C  0.37146335  0.25390389  0.38924924     0.29360
C706        C  0.35814793  0.24376717  0.36261794    -0.21450
C707        C  0.32934131  0.25136138  0.35645136    -0.09510
C708        C  0.31328332  0.26751946  0.37858698     0.29370
F709        F  0.28532765  0.27527806  0.37326355    -0.20030
H710        H  0.31375769  0.29004425  0.42196745     0.17730
H711        H  0.37109554  0.23187429  0.34567913     0.17740
F712        F  0.39966586  0.24657222  0.39387640    -0.20020
C713        C  0.01710880  0.28217898  0.54466209    -0.21450
C714        C  0.49225405  0.26515360  0.53963807    -0.09500
C715        C  0.49213018  0.23571397  0.54812482     0.29360
C716        C  0.01803452  0.22250348  0.55638701    -0.21450
C717        C  0.04404770  0.23847378  0.55520896    -0.09510
C718        C  0.04306220  0.26885255  0.55244846     0.29370
F719        F  0.06791297  0.28485047  0.55262234    -0.20030
H720        H  0.01733964  0.30519016  0.53937660     0.17730
H721        H  0.01835223  0.19905808  0.55902557     0.17740
F722        F  0.46777238  0.21917091  0.54567397    -0.20020
C723        C  0.00647397  0.33906853  0.44780454    -0.21450
C724        C  0.47938567  0.35282605  0.45238990    -0.09500
C725        C  0.47836842  0.38349630  0.45259747     0.29360
C726        C  0.00417921  0.39972420  0.45250915    -0.21450
C727        C  0.03134216  0.38564694  0.45260708    -0.09510
C728        C  0.03226788  0.35524859  0.44817980     0.29370
F729        F  0.05810220  0.34087635  0.44724073    -0.20030
H730        H  0.00799736  0.31552869  0.44735539     0.17730
H731        H  0.00278958  0.42310391  0.45572855     0.17740
F732        F  0.45258487  0.39772527  0.45578236    -0.20020
C733        C  0.19842074  0.98190843  0.37842115    -0.21450
C734        C  0.18103972  0.48469437  0.35252483    -0.09500
C735        C  0.15141679  0.47743486  0.35473674     0.29360
C736        C  0.13954224  0.46691204  0.38217717    -0.21450
C737        C  0.15695351  0.46326593  0.40809571    -0.09510
C738        C  0.18650626  0.47168587  0.40613818     0.29370
F739        F  0.20411343  0.96959243  0.43069318    -0.20030
H740        H  0.22156615  0.98626061  0.37671414     0.17730
H741        H  0.11671754  0.46102266  0.38283465     0.17740
F742        F  0.13451982  0.47806797  0.32950621    -0.20020
C743        C  0.16140497  0.04594676  0.15645909    -0.21450
C744        C  0.16601657  0.01570273  0.15812403    -0.09500
C745        C  0.15685184  0.99796574  0.13346403     0.29360
C746        C  0.14479964  0.01041937  0.10747148    -0.21450
C747        C  0.14201226  0.04066735  0.10512299    -0.09510
C748        C  0.14985133  0.05835230  0.13007577     0.29370
F749        F  0.14822555  0.08777685  0.12797665    -0.20030
H750        H  0.16752469  0.06015601  0.17522012     0.17730
H751        H  0.14003240  0.49653506  0.08795972     0.17740
F752        F  0.16015064  0.46859584  0.13388923    -0.20020
C753        C  0.23343822  0.36619297  0.19692266    -0.21450
C754        C  0.24691527  0.39337538  0.20095767    -0.09500
C755        C  0.27755407  0.39481442  0.20004434     0.29360
C756        C  0.29407667  0.36923326  0.19976463    -0.21450
C757        C  0.28029132  0.34195931  0.20084517    -0.09510
C758        C  0.24993890  0.34060858  0.19709576     0.29370
F759        F  0.23591857  0.31458186  0.19692334    -0.20030
H760        H  0.20992441  0.36442842  0.19723728     0.17730
H761        H  0.31742138  0.37091481  0.20236490     0.17740
F762        F  0.29146302  0.42077245  0.20274331    -0.20020
C763        C  0.15725098  0.33307325  0.30544075    -0.21450
C764        C  0.12673346  0.33313585  0.30615087    -0.09500
C765        C  0.11173183  0.35977938  0.30597614     0.29360
C766        C  0.12675857  0.38505950  0.29823627    -0.21450
C767        C  0.15675616  0.38389435  0.29165101    -0.09510
C768        C  0.17236028  0.35840805  0.29816328     0.29370
F769        F  0.20161070  0.35681725  0.29347707    -0.20030
H770        H  0.16911663  0.31269886  0.30618995     0.17730
H771        H  0.11455004  0.40489764  0.29467113     0.17740
F772        F  0.08220958  0.36067921  0.30789136    -0.20020
C773        C  0.42012555  0.49076790  0.09911486    -0.21450
C774        C  0.43268308  0.46499095  0.08724001    -0.09500
C775        C  0.45512820  0.45166354  0.10328167     0.29360
C776        C  0.46192760  0.46174502  0.13273513    -0.21450
C777        C  0.44647246  0.48521042  0.14635158    -0.09510
C778        C  0.42709245  0.50102176  0.12838455     0.29370
F779        F  0.41153497  0.02349653  0.14075748    -0.20030
H780        H  0.40266367  0.50126886  0.08700363     0.17730
H781        H  0.47691621  0.44919197  0.14625426     0.17740
F782        F  0.46752419  0.42670541  0.09244820    -0.20020
C783        C  0.33550423  0.51082595  0.27054824    -0.21450
C784        C  0.34604918  0.01236563  0.24026306    -0.09500
C785        C  0.32627228  0.01652924  0.21645019     0.29360
C786        C  0.29615259  0.01742954  0.22297314    -0.21450
C787        C  0.28555788  0.01340815  0.25315757    -0.09510
C788        C  0.30566311  0.51093612  0.27700723     0.29370
F789        F  0.29638094  0.50640748  0.30636366    -0.20030
H790        H  0.35046172  0.50742829  0.28914459     0.17730
H791        H  0.28109600  0.01879671  0.20416112     0.17740
F792        F  0.33598347  0.01851866  0.18694991    -0.20020
C793        C  0.04741977  0.50776296  0.22886891    -0.21450
C794        C  0.03463828  0.01378289  0.25771197    -0.09500
C795        C  0.05272717  0.01693453  0.28330166     0.29360
C796        C  0.08281648  0.01251986  0.28025340    -0.21450
C797        C  0.09523946  0.00416190  0.25186168    -0.09510
C798        C  0.07736215  0.50271263  0.22594119     0.29370
F799        F  0.08871714  0.49573707  0.19783621    -0.20030
H800        H  0.03397128  0.50506559  0.20887845     0.17730
H801        H  0.09615966  0.01416352  0.30042183     0.17740
F802        F  0.04117627  0.02325834  0.31147236    -0.20020
C803        C  0.37939063  0.02972736  0.38073100    -0.21450
C804        C  0.39342566  0.05161065  0.39740584    -0.09500
C805        C  0.41544362  0.06811745  0.38263709     0.29360
C806        C  0.42549844  0.06043593  0.35305805    -0.21450
C807        C  0.41406514  0.03592607  0.33824911    -0.09510
C808        C  0.38990492  0.02157394  0.35162553     0.29370
F809        F  0.37838824  0.49767266  0.33790016    -0.20030
H810        H  0.36272662  0.51648379  0.39165810     0.17730
H811        H  0.44408766  0.07172427  0.34319003     0.17740
F812        F  0.42925822  0.08969932  0.39807543    -0.20020
C813        C  0.02344810  0.39422773  0.24263533    -0.21450
C814        C  0.49294067  0.39227975  0.24349872    -0.09500
C815        C  0.47988923  0.36452477  0.24255677     0.29360
C816        C  0.49709669  0.33938524  0.24319217    -0.21450
C817        C  0.02758765  0.34136288  0.24389230    -0.09510
C818        C  0.04066327  0.36909495  0.24237585     0.29370
F819        F  0.07004868  0.37210295  0.24267778    -0.20030
H820        H  0.03402235  0.41531273  0.24303816     0.17730
H821        H  0.48651196  0.31831681  0.24402674     0.17740
F822        F  0.45048707  0.36158906  0.24308925    -0.20020
C823        C  0.36086223  0.40335857  0.30381557    -0.21450
C824        C  0.39133351  0.40351943  0.30531810    -0.09500
C825        C  0.40639523  0.37698060  0.30713353     0.29360
C826        C  0.39180600  0.35107961  0.30099615    -0.21450
C827        C  0.36214688  0.35153630  0.29385088    -0.09510
C828        C  0.34618407  0.37742315  0.29809179     0.29370
F829        F  0.31723447  0.37850384  0.29250684    -0.20030
H830        H  0.34890461  0.42367266  0.30292873     0.17730
H831        H  0.40425638  0.33109370  0.29895196     0.17740
F832        F  0.43581515  0.37633478  0.30954607    -0.20020
Fe833      Fe  0.46106110  0.96781782  0.29036620     1.65780
Fe834      Fe  0.41786048  0.95229019  0.23245593     1.73250
Fe835      Fe  0.44079581  0.52085703  0.24256502     1.54410
O836        O  0.43883951  0.53530548  0.28894682    -0.81820
O837        O  0.43953303  0.96166842  0.19278472    -0.80130
O838        O  0.43527161  0.99449280  0.31635262    -0.84330
O839        O  0.49275720  0.99976293  0.28590781    -0.79180
O840        O  0.39600900  0.52326928  0.24480671    -0.80960
O841        O  0.44886902  0.91931046  0.23929776    -0.83700
C842        C  0.50267236  0.51150299  0.26163834     0.97060
C843        C  0.43023252  0.52138219  0.31284601     1.04500
O844        O  0.44022500  0.98041401  0.25458010    -1.12690
O845        O  0.39530996  0.94246411  0.27171522    -0.75120
O846        O  0.43304062  0.93363990  0.30081820    -0.78600
O847        O  0.48593327  0.51948768  0.24038172    -0.79290
C848        C  0.40696164  0.92882015  0.29328768     0.95970
O849        O  0.48595365  0.93987210  0.26379486    -0.77250
O850        O  0.38394344  0.98114184  0.22285604    -0.82440
C851        C  0.44305652  0.48613898  0.18012950     0.98590
C852        C  0.37713016  0.50572454  0.23464226     1.04510
O853        O  0.44104683  0.51025860  0.19504371    -0.78090
C854        C  0.47511562  0.91884894  0.24858781     1.02810
Fe855      Fe  0.22265718  0.94804880  0.27271736     1.65780
Fe856      Fe  0.16920057  0.94893536  0.22234906     1.73250
Fe857      Fe  0.18922689  0.51121797  0.25702012     1.54410
O858        O  0.19485855  0.50713330  0.30490978    -0.81820
O859        O  0.18176236  0.97523379  0.18694555    -0.80130
O860        O  0.20356128  0.95985212  0.31278823    -0.84330
O861        O  0.25152196  0.98200256  0.27534775    -0.79180
O862        O  0.14495974  0.50793422  0.26619013    -0.80960
O863        O  0.20208603  0.91874192  0.21020338    -0.83700
C864        C  0.25504371  0.50428547  0.25885751     0.97060
C865        C  0.19461483  0.98447182  0.32189046     1.04500
O866        O  0.19364315  0.96974917  0.25051382    -1.12690
O867        O  0.15477588  0.92343471  0.25777840    -0.75120
O868        O  0.19794082  0.91055435  0.27494386    -0.78600
O869        O  0.23364327  0.51730921  0.24686798    -0.79290
C870        C  0.17053485  0.90760892  0.27438754     0.95970
O871        O  0.24209051  0.93506736  0.23237718    -0.77250
O872        O  0.13317642  0.97550295  0.23029367    -0.82440
C873        C  0.17721852  0.50253691  0.18664136     0.98590
C874        C  0.12624775  0.49547236  0.24944332     1.04510
O875        O  0.17963414  0.51845175  0.21072455    -0.78090
C876        C  0.22957445  0.91781183  0.21404299     1.02810
Fe877      Fe  0.42679571  0.82758062  0.52428182     1.65780
Fe878      Fe  0.42500582  0.77410519  0.47293489     1.73250
Fe879      Fe  0.36326540  0.79538268  0.50963852     1.54410
O880        O  0.36921934  0.80125114  0.55778132    -0.81820
O881        O  0.39764788  0.78502169  0.43835532    -0.80130
O882        O  0.41733481  0.80656558  0.56337515    -0.84330
O883        O  0.39137193  0.85369385  0.53210080    -0.79180
O884        O  0.36585554  0.75087991  0.51783005    -0.80960
O885        O  0.45392516  0.80791771  0.46007542    -0.83700
C886        C  0.37346400  0.86025569  0.51184545     0.97060
C887        C  0.39256688  0.79891627  0.57344699     1.04500
O888        O  0.40468131  0.79867397  0.50195649    -1.12690
O889        O  0.45176057  0.76089282  0.50736419    -0.75120
O890        O  0.46524228  0.80486462  0.52210744    -0.78600
O891        O  0.35861331  0.84017911  0.49933683    -0.79290
C892        C  0.46810378  0.77751427  0.52268454     0.95970
O893        O  0.43727509  0.84783265  0.48383978    -0.77250
O894        O  0.39911653  0.73799267  0.48225554    -0.82440
C895        C  0.37012364  0.78196356  0.43896456     0.98590
C896        C  0.37886719  0.73162958  0.50139286     1.04510
O897        O  0.35471062  0.78553057  0.46348624    -0.78090
C898        C  0.45463173  0.83549744  0.46478809     1.02810
Fe899      Fe  0.40727098  0.56726659  0.54274388     1.65780
Fe900      Fe  0.42580732  0.52675478  0.48240300     1.73250
Fe901      Fe  0.35613878  0.54526393  0.49315896     1.54420
O902        O  0.34036868  0.54289856  0.53918877    -0.81820
O903        O  0.41622016  0.55027096  0.44458383    -0.80130
O904        O  0.38049126  0.54059613  0.56725733    -0.84330
O905        O  0.37477135  0.59834534  0.53829742    -0.79180
O906        O  0.35600388  0.00008896  0.49396408    -0.80960
O907        O  0.45765813  0.55777989  0.49214588    -0.83700
C908        C  0.36347914  0.60779690  0.51392228     0.97060
C909        C  0.35379308  0.53513946  0.56333138     1.04500
O910        O  0.39629722  0.54667170  0.50584374    -1.12690
O911        O  0.43579850  0.50280818  0.51988690    -0.75120
O912        O  0.44154943  0.53937079  0.55264842    -0.78600
O913        O  0.35595044  0.59059200  0.49239507    -0.79290
C914        C  0.44745207  0.51373057  0.54334845     0.95970
O915        O  0.43541662  0.59352651  0.51826393    -0.77250
O916        O  0.39831086  0.99291551  0.46960798    -0.82440
C917        C  0.39199986  0.55025676  0.43127720     0.98590
C918        C  0.37528538  0.98317684  0.48256326     1.04510
O919        O  0.36791778  0.54562221  0.44576650    -0.78090
C920        C  0.45708685  0.58369978  0.50285437     1.02810
Fe921      Fe  0.21036024  0.72039701  0.79932597     1.65780
Fe922      Fe  0.17019914  0.69998222  0.74166836     1.73250
Fe923      Fe  0.19082536  0.76893146  0.74566497     1.54410
O924        O  0.18876154  0.78745045  0.79051657    -0.81820
O925        O  0.19634023  0.70656372  0.70491302    -0.80130
O926        O  0.18388258  0.74918139  0.82168374    -0.84330
O927        O  0.24224382  0.75204830  0.79192034    -0.79180
O928        O  0.14605659  0.77105166  0.74725967    -0.80960
O929        O  0.20005093  0.66751778  0.75373911    -0.83700
C930        C  0.25242318  0.76090121  0.76628383     0.97060
C931        C  0.17942711  0.77572011  0.81547096     1.04500
O932        O  0.19049648  0.72999904  0.76219273    -1.12690
O933        O  0.14503945  0.69404235  0.77976515    -0.75120
O934        O  0.18134063  0.68678519  0.81135880    -0.78600
O935        O  0.23584895  0.76714251  0.74418949    -0.79290
C936        C  0.15569020  0.68117957  0.80239010     0.95970
O937        O  0.23645011  0.69065005  0.77637004    -0.77250
O938        O  0.13725827  0.72780628  0.72627399    -0.82440
C939        C  0.19373345  0.72815848  0.68763720     0.98590
C940        C  0.12856134  0.75266635  0.73600192     1.04510
O941        O  0.19018383  0.75389203  0.69881741    -0.78090
C942        C  0.22639158  0.66845569  0.76255703     1.02810
Fe943      Fe  0.47599815  0.69774777  0.77181887     1.65780
Fe944      Fe  0.41852848  0.69683409  0.72614949     1.73250
Fe945      Fe  0.43970682  0.76037903  0.75763821     1.54420
O946        O  0.44703127  0.75700651  0.80527773    -0.81820
O947        O  0.42861638  0.72221038  0.68909905    -0.80130
O948        O  0.46134095  0.71111937  0.81347367    -0.84330
O949        O  0.50535660  0.73113989  0.76932629    -0.79180
O950        O  0.39566832  0.75725801  0.76886194    -0.80960
O951        O  0.45022903  0.66607964  0.71254243    -0.83700
C952        C  0.50636852  0.75413562  0.75369524     0.97060
C953        C  0.45067482  0.73501352  0.82275175     1.04500
O954        O  0.44472179  0.71870688  0.75182134    -1.12690
O955        O  0.40681587  0.67207933  0.76323968    -0.75120
O956        O  0.45123810  0.66064790  0.77842219    -0.78600
O957        O  0.48356656  0.76750403  0.74544447    -0.79290
C958        C  0.42391082  0.65667678  0.77886236     0.95970
O959        O  0.49178602  0.68301002  0.73038500    -0.77250
O960        O  0.38275430  0.72321310  0.73535439    -0.82440
C961        C  0.42555716  0.74972516  0.68783147     0.98590
C962        C  0.37634971  0.74394894  0.75370635     1.04510
O963        O  0.42864936  0.76633227  0.71135425    -0.78090
C964        C  0.47787361  0.66497488  0.71419854     1.02810
Fe965      Fe  0.15812820  0.81730027  0.04460458     1.65780
Fe966      Fe  0.17646768  0.77850953  0.98302394     1.73250
Fe967      Fe  0.10681711  0.79618252  0.99465781     1.54420
O968        O  0.09126974  0.79230279  0.04058851    -0.81820
O969        O  0.16676172  0.80333356  0.94623899    -0.80130
O970        O  0.13152526  0.78985660  0.06841020    -0.84330
O971        O  0.12557739  0.84855434  0.04109743    -0.79180
O972        O  0.10711326  0.75092834  0.99415784    -0.80960
O973        O  0.20842546  0.80906213  0.99391623    -0.83700
C974        C  0.11406200  0.85837695  0.01698150     0.97060
C975        C  0.10493719  0.78394533  0.06433884     1.04500
O976        O  0.14701448  0.79767104  0.00718214    -1.12690
O977        O  0.18634404  0.75334599  0.01967389    -0.75120
O978        O  0.19254760  0.78909666  0.05335192    -0.78600
O979        O  0.10621225  0.84148111  0.99531561    -0.79290
C980        C  0.19840628  0.76371416  0.04317792     0.95970
O981        O  0.18621251  0.84425406  0.02085680    -0.77250
O982        O  0.14895843  0.74530197  0.96871289    -0.82440
C983        C  0.14252701  0.80375684  0.93293426     0.98590
C984        C  0.12645538  0.73466232  0.98184437     1.04510
O985        O  0.11849914  0.79824846  0.94722033    -0.78090
C986        C  0.20798757  0.83465909  0.00544172     1.02810
Fe987      Fe  0.18094529  0.57772155  0.02521540     1.65780
Fe988      Fe  0.18021997  0.52200558  0.97648489     1.73250
Fe989      Fe  0.11729560  0.54611289  0.00882811     1.54420
O990        O  0.12093480  0.55331449  0.05687900    -0.81820
O991        O  0.15504542  0.53274715  0.94000205    -0.80130
O992        O  0.16857344  0.55980629  0.06511906    -0.84330
O993        O  0.14676464  0.60609602  0.02912991    -0.79180
O994        O  0.11823779  0.00184187  0.01870339    -0.80960
O995        O  0.21087070  0.55416439  0.96355755    -0.83700
C996        C  0.12831525  0.61138036  0.00894171     0.97060
C997        C  0.14331361  0.55263674  0.07413430     1.04500
O998        O  0.15911583  0.54826749  0.00335533    -1.12690
O999        O  0.20504485  0.50925652  0.01285589    -0.75120
O1000       O  0.21850174  0.55343672  0.02705010    -0.78600
O1001       O  0.11376619  0.59066603  0.99714145    -0.79290
C1002       C  0.22118956  0.52606315  0.02825914     0.95970
O1003       O  0.19411016  0.59534347  0.98433334    -0.77250
O1004       O  0.15283183  0.98697966  0.98556358    -0.82440
C1005       C  0.12742846  0.53149904  0.93877217     0.98590
C1006       C  0.13148591  0.98176695  0.00371525     1.04510
O1007       O  0.11090164  0.53540055  0.96243643    -0.78090
C1008       C  0.21178496  0.58188276  0.96660512     1.02810
Fe1009     Fe  0.10880136  0.66921444  0.54376348     1.65780
Fe1010     Fe  0.09467497  0.71011554  0.48400428     1.73250
Fe1011     Fe  0.16267125  0.68706447  0.49481828     1.54420
O1012       O  0.17629096  0.68840067  0.54110002    -0.81820
O1013       O  0.10476343  0.68687177  0.44530213    -0.80130
O1014       O  0.13516037  0.69543673  0.56842938    -0.84330
O1015       O  0.14103954  0.63809566  0.54030095    -0.79180
O1016       O  0.16567108  0.73202156  0.49604798    -0.80960
O1017       O  0.06134202  0.67976219  0.49257172    -0.83700
C1018       C  0.15061125  0.62604905  0.51593546     0.97060
C1019       C  0.16262861  0.69638431  0.56569488     1.04500
O1020       O  0.12212166  0.68867138  0.50708709    -1.12690
O1021       O  0.08418461  0.73402859  0.52226374    -0.75120
O1022       O  0.07452606  0.69726650  0.55311076    -0.78600
O1023       O  0.15979153  0.64149587  0.49357535    -0.79290
C1024       C  0.06998575  0.72304966  0.54437139     0.95970
O1025       O  0.08153990  0.64348417  0.51851682    -0.77250
O1026       O  0.12434957  0.74306329  0.47281793    -0.82440
C1027       C  0.12956127  0.68595270  0.43231568     0.98590
C1028       C  0.14868663  0.75046189  0.48414299     1.04510
O1029       O  0.15320686  0.68796376  0.44732254    -0.78090
C1030       C  0.06085321  0.65380117  0.50293680     1.02810
Fe1031     Fe  0.08964088  0.90238388  0.52200827     1.65780
Fe1032     Fe  0.08964675  0.96022769  0.47578567     1.73250
Fe1033     Fe  0.15260953  0.93861488  0.50707975     1.54420
O1034       O  0.14902333  0.93093619  0.55459219    -0.81820
O1035       O  0.11576125  0.95032893  0.43856412    -0.80130
O1036       O  0.10327263  0.91625097  0.56343151    -0.84330
O1037       O  0.12281312  0.87262747  0.51775183    -0.79180
O1038       O  0.14883250  0.98229126  0.51828273    -0.80960
O1039       O  0.05869687  0.92891565  0.46270246    -0.83700
C1040       C  0.14684182  0.87205886  0.50314458     0.97060
C1041       C  0.12702394  0.92682908  0.57246626     1.04500
O1042       O  0.11098076  0.93363889  0.50147552    -1.12690
O1043       O  0.06428952  0.97190958  0.51292204    -0.75120
O1044       O  0.05290366  0.92775821  0.52999874    -0.78600
O1045       O  0.16044302  0.89502951  0.49530976    -0.79290
C1046       C  0.04881465  0.95509978  0.52940632     0.95970
O1047       O  0.07429856  0.88708199  0.48119060    -0.77250
O1048       O  0.11582622  0.99605340  0.48466661    -0.82440
C1049       C  0.14333419  0.95332459  0.43740175     0.98590
C1050       C  0.13575175  0.50184631  0.50350254     1.04510
O1051       O  0.15924109  0.94989719  0.46091637    -0.78090
C1052       C  0.05681488  0.90132770  0.46501928     1.02810
Fe1053     Fe  0.31376412  0.51532337  0.79541549     1.65780
Fe1054     Fe  0.35515462  0.53243518  0.73525174     1.73250
Fe1055     Fe  0.33250008  0.96351841  0.74409597     1.54420
O1056       O  0.33404928  0.94779864  0.78988473    -0.81820
O1057       O  0.33263461  0.52369799  0.69649434    -0.80130
O1058       O  0.33987638  0.98780904  0.81869763    -0.84330
O1059       O  0.28243035  0.98337753  0.79103082    -0.79180
O1060       O  0.37744876  0.96143752  0.74458170    -0.80960
O1061       O  0.32420567  0.56524271  0.74549750    -0.83700
C1062       C  0.27119347  0.97394129  0.76652594     0.97060
C1063       C  0.34264221  0.96062092  0.81438802     1.04500
O1064       O  0.33352366  0.50372963  0.75773591    -1.12690
O1065       O  0.37865745  0.54168002  0.77334364    -0.75120
O1066       O  0.34184909  0.54927964  0.80566444    -0.78600
O1067       O  0.28710537  0.96533725  0.74399829    -0.79290
C1068       C  0.36757055  0.55461030  0.79638609     0.95970
O1069       O  0.28814887  0.54380764  0.77190585    -0.77250
O1070       O  0.38878341  0.50366245  0.72255016    -0.82440
C1071       C  0.33000990  0.99940465  0.68289735     0.98590
C1072       C  0.39608430  0.97945432  0.73421950     1.04510
O1073       O  0.33251085  0.97509421  0.69690481    -0.78090
C1074       C  0.29826601  0.56520318  0.75674348     1.02810
Fe1075     Fe  0.05063608  0.53742198  0.77405610     1.65780
Fe1076     Fe  0.10678877  0.53550813  0.72467826     1.73250
Fe1077     Fe  0.08348797  0.97343632  0.75853765     1.54420
O1078       O  0.07670028  0.97894757  0.80655386    -0.81820
O1079       O  0.09819842  0.00784761  0.68869471    -0.80130
O1080       O  0.06880752  0.52664694  0.81405825    -0.84330
O1081       O  0.02172523  0.00358867  0.77775841    -0.79180
O1082       O  0.12765346  0.97520600  0.76721622    -0.80960
O1083       O  0.07374709  0.56428404  0.71068632    -0.83700
C1084       C  0.01781038  0.98172808  0.76059235     0.97060
C1085       C  0.07727677  0.00210367  0.82322418     1.04500
O1086       O  0.08049829  0.51505402  0.75205810    -1.12690
O1087       O  0.11847734  0.56272261  0.76005254    -0.75120
O1088       O  0.07435014  0.57556932  0.77574016    -0.78600
O1089       O  0.03922381  0.96817951  0.74831930    -0.79290
C1090       C  0.10167861  0.57886789  0.77600328     0.95970
O1091       O  0.03276059  0.54907462  0.73344434    -0.77250
O1092       O  0.14256312  0.01032396  0.73543273    -0.82440
C1093       C  0.09878144  0.98010849  0.68844834     0.98590
C1094       C  0.14766103  0.98944088  0.75350555     1.04510
O1095       O  0.09367134  0.96494580  0.71240780    -0.78090
C1096       C  0.04607930  0.56549601  0.71459951     1.02810
Fe1097     Fe  0.05852317  0.76764767  0.29201507     1.65780
Fe1098     Fe  0.10375595  0.78199240  0.23406293     1.73250
Fe1099     Fe  0.08165562  0.71336743  0.24523847     1.54410
O1100       O  0.08327777  0.70063600  0.29199568    -0.81820
O1101       O  0.08386684  0.77118628  0.19440507    -0.80130
O1102       O  0.08393091  0.74246325  0.31857738    -0.84330
O1103       O  0.02767152  0.73494599  0.28848643    -0.79180
O1104       O  0.12642260  0.71150853  0.24654173    -0.80960
O1105       O  0.07198834  0.81461120  0.24029803    -0.83700
C1106       C  0.01887672  0.72232659  0.26442576     0.97060
C1107       C  0.09054257  0.71576446  0.31556324     1.04500
O1108       O  0.08100944  0.75417685  0.25652786    -1.12690
O1109       O  0.12451895  0.79310188  0.27336231    -0.75120
O1110       O  0.08542688  0.80269627  0.30179919    -0.78600
O1111       O  0.03655920  0.71369487  0.24353449    -0.79290
C1112       C  0.11181521  0.80737276  0.29452737     0.95970
O1113       O  0.03411993  0.79423340  0.26471910    -0.77250
O1114       O  0.13846422  0.75358121  0.22483273    -0.82440
C1115       C  0.08046225  0.74635137  0.18221167     0.98590
C1116       C  0.14529945  0.72891933  0.23572165     1.04510
O1117       O  0.08205991  0.72262327  0.19745226    -0.78090
C1118       C  0.04535146  0.81500947  0.24935508     1.02810
Fe1119     Fe  0.29657844  0.78637091  0.27250729     1.65780
Fe1120     Fe  0.35462315  0.78472164  0.22529998     1.73250
Fe1121     Fe  0.33245966  0.72290563  0.25962006     1.54420
O1122       O  0.32437805  0.72807041  0.30725330    -0.81820
O1123       O  0.34449553  0.75796790  0.18937995    -0.80130
O1124       O  0.30994213  0.77420310  0.31432559    -0.84330
O1125       O  0.26672939  0.75328286  0.27092700    -0.79180
O1126       O  0.37620282  0.72655524  0.26975844    -0.80960
O1127       O  0.32368188  0.81557680  0.21178259    -0.83700
C1128       C  0.26602541  0.72911457  0.25691039     0.97060
C1129       C  0.31986563  0.75053231  0.32432598     1.04500
O1130       O  0.32785043  0.76428879  0.25243303    -1.12690
O1131       O  0.36642270  0.81067379  0.26130797    -0.75120
O1132       O  0.32210739  0.82317720  0.27800211    -0.78600
O1133       O  0.28892492  0.71527492  0.24883094    -0.79290
C1134       C  0.34952965  0.82670764  0.27740202     0.95970
O1135       O  0.28173057  0.79988459  0.23108526    -0.77250
O1136       O  0.38988385  0.75813094  0.23403284    -0.82440
C1137       C  0.34747247  0.73040542  0.18920910     0.98590
C1138       C  0.39579384  0.73850785  0.25327330     1.04510
O1139       O  0.34388343  0.71495133  0.21334451    -0.78090
C1140       C  0.29603975  0.81707253  0.21408305     1.02810
Fe1141     Fe  0.34215598  0.65394680  0.02209452     1.65780
Fe1142     Fe  0.34370589  0.70982960  0.97356540     1.73250
Fe1143     Fe  0.40529069  0.68980062  0.00835747     1.54410
O1144       O  0.40014657  0.68267958  0.05591449    -0.81820
O1145       O  0.37127145  0.69859266  0.93792513    -0.80130
O1146       O  0.35374691  0.66944600  0.06350256    -0.84330
O1147       O  0.37585235  0.62466055  0.02137825    -0.79180
O1148       O  0.40058036  0.73372222  0.01848313    -0.80960
O1149       O  0.31339510  0.67781988  0.96061713    -0.83700
C1150       C  0.39997572  0.62341607  0.00699855     0.97060
C1151       C  0.37762684  0.67910302  0.07320719     1.04500
O1152       O  0.36404964  0.68449565  0.00129162    -1.12690
O1153       O  0.31697725  0.72285658  0.00916862    -0.75120
O1154       O  0.30487936  0.67915906  0.02693336    -0.78600
O1155       O  0.41340086  0.64600855  0.99769668    -0.79290
C1156       C  0.30107954  0.70652762  0.02575328     0.95970
O1157       O  0.32924135  0.63697284  0.98107291    -0.77250
O1158       O  0.36969320  0.74580534  0.98209645    -0.82440
C1159       C  0.39872298  0.70261118  0.93787013     0.98590
C1160       C  0.38865096  0.75262008  0.00172062     1.04510
O1161       O  0.41372143  0.70034676  0.96220261    -0.78090
C1162       C  0.31187586  0.65030793  0.96395560     1.02810
Fe1163     Fe  0.36190885  0.91854435  0.04618686     1.65780
Fe1164     Fe  0.34404516  0.96341989  0.99046192     1.73250
Fe1165     Fe  0.41240542  0.93810015  0.99352948     1.54420
O1166       O  0.42925913  0.94022445  0.03849631    -0.81820
O1167       O  0.35052213  0.94352155  0.94911503    -0.80130
O1168       O  0.39003962  0.94410780  0.06958259    -0.84330
O1169       O  0.39342911  0.88667015  0.03959218    -0.79180
O1170       O  0.41644978  0.98282965  0.99432734    -0.80960
O1171       O  0.31140609  0.93226341  0.99919412    -0.83700
C1172       C  0.40345687  0.87643151  0.01447338     0.97060
C1173       C  0.41671370  0.94891905  0.06349004     1.04500
O1174       O  0.37285106  0.93966124  0.00930656    -1.12690
O1175       O  0.33718228  0.98450752  0.03135032    -0.75120
O1176       O  0.32793811  0.94600705  0.05942345    -0.78600
O1177       O  0.41015640  0.89301701  0.99227272    -0.79290
C1178       C  0.32286746  0.97217498  0.05246197     0.95970
O1179       O  0.33271801  0.89436703  0.02164317    -0.77250
O1180       O  0.37267892  0.99715754  0.97934447    -0.82440
C1181       C  0.37384969  0.93744149  0.93454145     0.98590
C1182       C  0.39879859  0.50257997  0.98672057     1.04510
O1183       O  0.39880891  0.93743252  0.94726574    -0.78090
C1184       C  0.31132237  0.90568657  0.00783589     1.02810
C1185       C  0.40699936  0.58283020  0.96998397    -0.21450
C1186       C  0.41073099  0.59390962  0.99980996    -0.09500
C1187       C  0.41534559  0.57439193  0.02391844     0.29360
C1188       C  0.41446974  0.54433532  0.01854463    -0.21450
C1189       C  0.40782925  0.53330953  0.98936133    -0.09510
C1190       C  0.40510235  0.55269760  0.96481586     0.29370
F1191       F  0.39881325  0.54258185  0.93635023    -0.20030
H1192       H  0.40254668  0.59750816  0.95130099     0.17730
H1193       H  0.41626324  0.52971640  0.03780596     0.17740
F1194       F  0.41776638  0.58440364  0.05317394    -0.20020
C1195       C  0.40318008  0.79590150  0.03328798    -0.21450
C1196       C  0.39678030  0.78369230  0.00457655    -0.09500
C1197       C  0.39665848  0.80182966  0.97864457     0.29360
C1198       C  0.40118849  0.83179437  0.98176122    -0.21450
C1199       C  0.40543084  0.84437847  0.01079236    -0.09510
C1200       C  0.40718322  0.82601586  0.03650185     0.29370
F1201       F  0.41183179  0.83725021  0.06490462    -0.20030
H1202       H  0.40364445  0.78233325  0.05349656     0.17730
H1203       H  0.39966185  0.84536294  0.96163231     0.17740
F1204       F  0.39156207  0.79067327  0.95028510    -0.20020
C1205       C  0.35253846  0.68637501  0.15519911    -0.21450
C1206       C  0.35761892  0.71613061  0.16035717    -0.09500
C1207       C  0.37436760  0.73176657  0.13854184     0.29360
C1208       C  0.38418270  0.71825429  0.11143126    -0.21450
C1209       C  0.37717550  0.68914570  0.10531956    -0.09510
C1210       C  0.36191060  0.67304861  0.12777870     0.29370
F1211       F  0.35469749  0.64482423  0.12239216    -0.20030
H1212       H  0.34036520  0.67367824  0.17188236     0.17730
H1213       H  0.39532349  0.73120359  0.09416559     0.17740
F1214       F  0.38102898  0.76025613  0.14313762    -0.20020
C1215       C  0.22650749  0.72685229  0.21948867    -0.21450
C1216       C  0.23692360  0.71888174  0.24833802    -0.09500
C1217       C  0.21696935  0.71013409  0.27125520     0.29360
C1218       C  0.18701541  0.71079944  0.26581645    -0.21450
C1219       C  0.17650244  0.72131081  0.23788622    -0.09510
C1220       C  0.19653006  0.72840667  0.21434413     0.29370
F1221       F  0.18711643  0.73841344  0.18703163    -0.20030
H1222       H  0.24152304  0.73453094  0.20187044     0.17730
H1223       H  0.17198039  0.70558981  0.28442837     0.17740
F1224       F  0.22633194  0.70357157  0.29975208    -0.20020
C1225       C  0.44515077  0.73165548  0.22971576    -0.21450
C1226       C  0.42663842  0.72953982  0.25569188    -0.09500
C1227       C  0.43838864  0.72053032  0.28362860     0.29360
C1228       C  0.46846083  0.71616636  0.28594959    -0.21450
C1229       C  0.48712155  0.71984144  0.26030229    -0.09510
C1230       C  0.47503328  0.72661812  0.23185246     0.29370
F1231       F  0.49234948  0.73094072  0.20670619    -0.20030
H1232       H  0.43656677  0.73813301  0.20780363     0.17730
H1233       H  0.47736077  0.71110532  0.30813101     0.17740
F1234       F  0.42121791  0.71790354  0.30912880    -0.20020
C1235       C  0.43638685  0.98086487  0.77015076    -0.21450
C1236       C  0.42716122  0.97443351  0.74050355    -0.09500
C1237       C  0.44798241  0.96631174  0.71795044     0.29360
C1238       C  0.47782004  0.96581614  0.72513677    -0.21450
C1239       C  0.48705023  0.97367949  0.75475826    -0.09510
C1240       C  0.46574073  0.98020419  0.77745457     0.29370
F1241       F  0.47343691  0.48787944  0.80638665    -0.20030
H1242       H  0.42072978  0.48833185  0.78738433     0.17730
H1243       H  0.49377209  0.96125993  0.70706298     0.17740
F1244       F  0.43963626  0.96014520  0.68891302    -0.20020
C1245       C  0.22419670  0.99711372  0.78108054    -0.21450
C1246       C  0.23901708  0.97499387  0.76459143    -0.09500
C1247       C  0.22293170  0.95610896  0.74576046     0.29360
C1248       C  0.19266471  0.95981985  0.74328726    -0.21450
C1249       C  0.17833574  0.98256425  0.75921543    -0.09510
C1250       C  0.19432497  0.00107348  0.77816307     0.29370
F1251       F  0.18112383  0.52355946  0.79320935    -0.20030
H1252       H  0.23597907  0.51224661  0.79545601     0.17730
H1253       H  0.18057143  0.94559291  0.72821488     0.17740
F1254       F  0.23636555  0.93429177  0.72979765    -0.20020
C1255       C  0.33726751  0.92719644  0.85867467    -0.21450
C1256       C  0.35531664  0.94436313  0.83997682    -0.09500
C1257       C  0.38271479  0.95286829  0.85092566     0.29360
C1258       C  0.39068665  0.94680854  0.88102731    -0.21450
C1259       C  0.37102653  0.93299889  0.90101960    -0.09510
C1260       C  0.34492814  0.92164637  0.88907455     0.29370
F1261       F  0.32550240  0.90772395  0.90767006    -0.20030
H1262       H  0.31590893  0.92081699  0.85092057     0.17730
H1263       H  0.41069512  0.95598689  0.88963967     0.17740
F1264       F  0.40037990  0.97002257  0.83371398    -0.20020
C1265       C  0.12480864  0.98021835  0.63763851    -0.21450
C1266       C  0.10789691  0.96508342  0.65957070    -0.09500
C1267       C  0.10200927  0.93538824  0.65440822     0.29360
C1268       C  0.11115003  0.92190742  0.62696928    -0.21450
C1269       C  0.12683083  0.93749023  0.60445972    -0.09510
C1270       C  0.13436286  0.96658042  0.61047420     0.29370
F1271       F  0.14864045  0.48263370  0.58893674    -0.20030
H1272       H  0.13040584  0.50287381  0.64131133     0.17730
H1273       H  0.10457784  0.89963358  0.62251282     0.17740
F1274       F  0.08625574  0.91971019  0.67510730    -0.20020
C1275       C  0.11222152  0.66768138  0.38176642    -0.21450
C1276       C  0.12953569  0.68726563  0.39853890    -0.09500
C1277       C  0.13802989  0.71353806  0.38487520     0.29360
C1278       C  0.12692937  0.72132871  0.35649514    -0.21450
C1279       C  0.10726648  0.70309804  0.34103025    -0.09510
C1280       C  0.10152466  0.67530000  0.35287341     0.29370
F1281       F  0.08327366  0.65684701  0.33822433    -0.20030
H1282       H  0.10496191  0.64756398  0.39221612     0.17730
H1283       H  0.13208625  0.74272770  0.34760364     0.17740
F1284       F  0.15351019  0.73355204  0.40090166    -0.20020
C1285       C  0.16372059  0.57829853  0.48996783    -0.21450
C1286       C  0.14990765  0.59363717  0.51421888    -0.09500
C1287       C  0.13316047  0.57772475  0.53597142     0.29360
C1288       C  0.12999631  0.54761680  0.53306806    -0.21450
C1289       C  0.14312807  0.53263371  0.50851552    -0.09510
C1290       C  0.16032238  0.54800017  0.48708794     0.29370
F1291       F  0.17319986  0.53377328  0.46301839    -0.20030
H1292       H  0.17655013  0.58980994  0.47286324     0.17730
H1293       H  0.11622851  0.53609771  0.54938441     0.17740
F1294       F  0.11838625  0.59128159  0.55927807    -0.20020
C1295       C  0.14512724  0.80053460  0.46241179    -0.21450
C1296       C  0.15622871  0.78191807  0.48480111    -0.09500
C1297       C  0.17014964  0.79433273  0.51035643     0.29360
C1298       C  0.17019153  0.82463851  0.51479902    -0.21450
C1299       C  0.15714003  0.84299073  0.49346795    -0.09510
C1300       C  0.14569724  0.83077400  0.46659958     0.29370
F1301       F  0.13217227  0.84794924  0.44602468    -0.20030
H1302       H  0.13430438  0.79160122  0.44255863     0.17730
H1303       H  0.17830436  0.83359080  0.53607408     0.17740
F1304       F  0.18082263  0.77719007  0.53272040    -0.20020
C1305       C  0.11944394  0.51371794  0.85416442    -0.21450
C1306       C  0.09107592  0.50256386  0.85327460    -0.09500
C1307       C  0.07440876  0.00123621  0.88051831     0.29360
C1308       C  0.08609931  0.01114610  0.90824756    -0.21450
C1309       C  0.11438872  0.52303534  0.90905481    -0.09510
C1310       C  0.13103219  0.52394712  0.88157709     0.29370
F1311       F  0.15814545  0.53571238  0.88082557    -0.20030
H1312       H  0.13206346  0.51619017  0.83307254     0.17730
H1313       H  0.07295353  0.00963839  0.92906165     0.17740
F1314       F  0.04651749  0.99156246  0.88003146    -0.20020
C1315       C  0.28907552  0.60314314  0.94917086    -0.21450
C1316       C  0.28696470  0.63362096  0.95175949    -0.09500
C1317       C  0.25925118  0.64660347  0.95063088     0.29360
C1318       C  0.23424727  0.62921643  0.95146213    -0.21450
C1319       C  0.23642711  0.59872025  0.95329369    -0.09510
C1320       C  0.26407507  0.58575927  0.94981154     0.29370
F1321       F  0.26731597  0.55641819  0.95115700    -0.20030
H1322       H  0.31016385  0.59261614  0.94971508     0.17730
H1323       H  0.21320974  0.63975370  0.95365482     0.17740
F1324       F  0.25609703  0.67593755  0.95296910    -0.20020
C1325       C  0.24471366  0.98407229  0.05356225    -0.21450
C1326       C  0.24496820  0.51374479  0.04614791    -0.09500
C1327       C  0.26954472  0.53067408  0.05322335     0.29360
C1328       C  0.29508896  0.51699904  0.06189504    -0.21450
C1329       C  0.29623343  0.98656412  0.06346640    -0.09510
C1330       C  0.27018492  0.97052696  0.06284770     0.29370
F1331       F  0.27030182  0.94112797  0.06593619    -0.20030
H1332       H  0.22554262  0.97089376  0.04972679     0.17730
H1333       H  0.31490436  0.52973816  0.06302464     0.17740
F1334       F  0.27021582  0.55977951  0.04804487    -0.20020
C1335       C  0.11507696  0.93936805  0.03577127    -0.21450
C1336       C  0.12211730  0.95100700  0.00688379    -0.09500
C1337       C  0.12221099  0.93240622  0.98100829     0.29360
C1338       C  0.11693415  0.90256808  0.98425885    -0.21450
C1339       C  0.11211648  0.89046986  0.01340589    -0.09510
C1340       C  0.11048988  0.90931484  0.03913563     0.29370
F1341       F  0.10550943  0.89855999  0.06767604    -0.20030
H1342       H  0.11472604  0.95327869  0.05597407     0.17730
H1343       H  0.11854293  0.88863744  0.96410759     0.17740
F1344       F  0.12818078  0.94298705  0.95256694    -0.20020
C1345       C  0.15130840  0.68821725  0.99059277    -0.21450
C1346       C  0.12505053  0.70252979  0.98517969    -0.09500
C1347       C  0.09897901  0.68624465  0.98609801     0.29360
C1348       C  0.09963446  0.65604103  0.99229720    -0.21450
C1349       C  0.12611593  0.64224262  0.99902056    -0.09510
C1350       C  0.15187629  0.65894649  0.99808038     0.29370
F1351       F  0.17797134  0.64726898  0.00525672    -0.20030
H1352       H  0.17166524  0.70013397  0.99062878     0.17730
H1353       H  0.07948910  0.64381914  0.99312273     0.17740
F1354       F  0.07309204  0.69943547  0.98112941    -0.20020
C1355       C  0.10509597  0.74278919  0.10068598    -0.21450
C1356       C  0.09045004  0.76715851  0.08904880    -0.09500
C1357       C  0.06664669  0.77863400  0.10566969     0.29360
C1358       C  0.06030086  0.76837821  0.13528461    -0.21450
C1359       C  0.07745116  0.74646540  0.14849581    -0.09510
C1360       C  0.09856590  0.73232825  0.13010570     0.29370
F1361       F  0.11585930  0.71151601  0.14214798    -0.20030
H1362       H  0.12353988  0.73361125  0.08811018     0.17730
H1363       H  0.04406355  0.77974659  0.14919127     0.17740
F1364       F  0.05215329  0.80216941  0.09513513    -0.20020
C1365       C  0.25035733  0.70319532  0.04566167    -0.21450
C1366       C  0.27600865  0.71948680  0.04210588    -0.09500
C1367       C  0.27595328  0.74919078  0.05021074     0.29360
C1368       C  0.24968223  0.76319636  0.05694301    -0.21450
C1369       C  0.22345545  0.74781488  0.05462406    -0.09510
C1370       C  0.22405213  0.71733530  0.05181798     0.29370
F1371       F  0.19889273  0.70189172  0.05072586    -0.20030
H1372       H  0.25007521  0.68011561  0.04030964     0.17730
H1373       H  0.24963160  0.78669493  0.05945899     0.17640
F1374       F  0.30078099  0.76520056  0.04870395    -0.20020
C1375       C  0.23208586  0.88338915  0.00226863    -0.21450
C1376       C  0.23434646  0.85291559  0.00238163    -0.09500
C1377       C  0.26217622  0.84003264  0.00150850     0.29360
C1378       C  0.28710767  0.85737718  0.00236539    -0.21450
C1379       C  0.28489535  0.88785542  0.00330072    -0.09510
C1380       C  0.25709311  0.90077540  0.00219628     0.29370
F1381       F  0.25391491  0.93015688  0.00253493    -0.20030
H1382       H  0.21090028  0.89376178  0.00262895     0.17730
H1383       H  0.30822007  0.84689796  0.00287862     0.17740
F1384       F  0.26536431  0.81064460  0.00152181    -0.20020
C1385       C  0.45617832  0.72583272  0.87854355    -0.21450
C1386       C  0.43865692  0.73463509  0.85422551    -0.09500
C1387       C  0.40832276  0.73314939  0.85784370     0.29360
C1388       C  0.39573478  0.72235286  0.88481510    -0.21450
C1389       C  0.41308719  0.71274915  0.90900677    -0.09510
C1390       C  0.44360303  0.71541402  0.90591387     0.29370
F1391       F  0.46137556  0.70701399  0.92874925    -0.20030
H1392       H  0.47965193  0.72565931  0.87570511     0.17730
H1393       H  0.37222144  0.72107786  0.88644496     0.17740
F1394       F  0.39087982  0.73920987  0.83399290    -0.20020
C1395       C  0.02453970  0.64193960  0.69697891    -0.21450
C1396       C  0.49418038  0.63985859  0.70105218    -0.09500
C1397       C  0.48116482  0.61212171  0.70025496     0.29360
C1398       C  0.49857099  0.58714004  0.70026812    -0.21450
C1399       C  0.02909170  0.58939424  0.70093213    -0.09510
C1400       C  0.04193852  0.61694036  0.69675419     0.29370
F1401       F  0.07129950  0.62020153  0.69683510    -0.20030
H1402       H  0.03506444  0.66305605  0.69711355     0.17730
H1403       H  0.48811609  0.56615483  0.70306602     0.17740
F1404       F  0.45191770  0.60900172  0.70384817    -0.20020
C1405       C  0.38228431  0.63225234  0.80478233    -0.21450
C1406       C  0.41178403  0.63195659  0.79589389    -0.09500
C1407       C  0.42802264  0.60621035  0.79889422     0.29360
C1408       C  0.41364805  0.58018253  0.80508349    -0.21450
C1409       C  0.38322789  0.57982859  0.80832606    -0.09510
C1410       C  0.36802037  0.60626676  0.81145725     0.29370
F1411       F  0.33865068  0.60668857  0.81554834    -0.20030
H1412       H  0.36966853  0.65214219  0.80367233     0.17730
H1413       H  0.42570532  0.55994179  0.80311508     0.17740
F1414       F  0.45685868  0.60531931  0.79155826    -0.20020
C1415       C  0.18035983  0.69253181  0.64790763    -0.21450
C1416       C  0.19083563  0.72070318  0.65459933    -0.09500
C1417       C  0.19604349  0.73996613  0.63014948     0.29360
C1418       C  0.18959560  0.73123765  0.59986171    -0.21450
C1419       C  0.17797268  0.70337860  0.59401704    -0.09510
C1420       C  0.17386377  0.68409206  0.61829862     0.29370
F1421       F  0.16110067  0.65774816  0.61370926    -0.20030
H1422       H  0.17547481  0.67711504  0.66597281     0.17730
H1423       H  0.19210162  0.74666277  0.58137914     0.17740
F1424       F  0.20664485  0.76706298  0.63549844    -0.20020
C1425       C  0.04817640  0.74825899  0.71817958    -0.21450
C1426       C  0.03573866  0.76313802  0.74348286    -0.09500
C1427       C  0.05408789  0.77807002  0.76365297     0.29360
C1428       C  0.08442783  0.77671347  0.75943232    -0.21450
C1429       C  0.09695212  0.75962709  0.73563798    -0.09510
C1430       C  0.07844518  0.74630156  0.71432188     0.29370
F1431       F  0.08954486  0.72994200  0.69080028    -0.20030
H1432       H  0.03443561  0.73586359  0.70290400     0.17730
H1433       H  0.09812709  0.78699889  0.77634488     0.17740
F1434       F  0.04280759  0.79159896  0.78900313    -0.20020
C1435       C  0.30268361  0.76807053  0.78660253    -0.21450
C1436       C  0.28442980  0.76200182  0.76178970    -0.09500
C1437       C  0.29706818  0.75281756  0.73372640     0.29360
C1438       C  0.32702290  0.74785657  0.73130285    -0.21450
C1439       C  0.34522346  0.75257084  0.75647984    -0.09510
C1440       C  0.33289777  0.76402367  0.78383080     0.29370
F1441       F  0.34967338  0.76998584  0.80834359    -0.20030
H1442       H  0.29343398  0.77526690  0.80842270     0.17730
H1443       H  0.33594826  0.73962339  0.70973448     0.17740
F1444       F  0.28025903  0.74648009  0.70925176    -0.20020
C1445       C  0.17712369  0.81471739  0.85548661    -0.21450
C1446       C  0.16326577  0.79245901  0.83923702    -0.09500
C1447       C  0.13721811  0.78059406  0.85130677     0.29360
C1448       C  0.12749828  0.78801010  0.88097238    -0.21450
C1449       C  0.14391826  0.80696160  0.89912729    -0.09510
C1450       C  0.16751680  0.82201046  0.88529682     0.29370
F1451       F  0.18336731  0.84124496  0.90190374    -0.20030
H1452       H  0.19720384  0.82405049  0.84662892     0.17730
H1453       H  0.10934972  0.77612031  0.89096795     0.17740
F1454       F  0.12317965  0.75916264  0.83582185    -0.20020
C1455       C  0.23229839  0.61472406  0.75496790    -0.21450
C1456       C  0.24513181  0.64238499  0.75793023    -0.09500
C1457       C  0.27573788  0.64448901  0.75751372     0.29360
C1458       C  0.29292314  0.61932639  0.75533965    -0.21450
C1459       C  0.27999929  0.59161513  0.75411493    -0.09510
C1460       C  0.24947003  0.58957855  0.75332983     0.29370
F1461       F  0.23618741  0.56324943  0.75129505    -0.20030
H1462       H  0.20883074  0.61242396  0.75501764     0.17730
H1463       H  0.31638686  0.62146528  0.75598483     0.17740
F1464       F  0.28909999  0.67078707  0.75950902    -0.20020
C1465       C  0.15640318  0.62899406  0.81197811    -0.21450
C1466       C  0.14037499  0.65497602  0.81259814    -0.09500
C1467       C  0.10999798  0.65379347  0.80947449     0.29360
C1468       C  0.09687645  0.62795997  0.80001989    -0.21450
C1469       C  0.11397246  0.60322073  0.79369896    -0.09510
C1470       C  0.14339892  0.60324629  0.80205399     0.29370
F1471       F  0.16017814  0.57916444  0.79813625    -0.20030
H1472       H  0.17982108  0.62937489  0.81452756     0.17730
H1473       H  0.07393912  0.62821748  0.79470644     0.17740
F1474       F  0.09386326  0.67856828  0.81076621    -0.20020
C1475       C  0.31129260  0.52410549  0.63650085    -0.21450
C1476       C  0.32693689  0.00077152  0.64913229    -0.09500
C1477       C  0.34598967  0.48475551  0.62991356     0.29360
C1478       C  0.35201904  0.49433344  0.60002949    -0.21450
C1479       C  0.33889716  0.51968530  0.58871383    -0.09510
C1480       C  0.31711140  0.53346573  0.60643947     0.29370
F1481       F  0.30427414  0.55810520  0.59628026    -0.20030
H1482       H  0.29657940  0.03686440  0.65093471     0.17730
H1483       H  0.36904882  0.48352126  0.58668884     0.17740
F1484       F  0.36186624  0.46249941  0.64127266    -0.20020
C1485       C  0.01086460  0.58862525  0.49730984    -0.21450
C1486       C  0.48333798  0.60198276  0.49898425    -0.09500
C1487       C  0.48159894  0.63255920  0.49898815     0.29360
C1488       C  0.00702404  0.64931591  0.49854131    -0.21450
C1489       C  0.03452631  0.63589730  0.49869441    -0.09510
C1490       C  0.03624797  0.60534788  0.49747102     0.29370
F1491       F  0.06243791  0.59162856  0.49694897    -0.20030
H1492       H  0.01279016  0.56510907  0.49725505     0.17730
H1493       H  0.00517352  0.67282885  0.49952709     0.17740
F1494       F  0.45539691  0.64624166  0.49985821    -0.20020
C1495       C  0.02434124  0.49737831  0.55423715    -0.21450
C1496       C  0.02383069  0.96773044  0.54618382    -0.09500
C1497       C  0.99760815  0.95212574  0.54887173     0.29360
C1498       C  0.47162850  0.96720817  0.55383633    -0.21450
C1499       C  0.47180582  0.49770364  0.55619123    -0.09510
C1500       C  0.99838269  0.51237537  0.55959179     0.29370
F1501       F  0.49926365  0.54182179  0.56255328    -0.20030
H1502       H  0.04453908  0.50954906  0.55322003     0.17730
H1503       H  0.45124234  0.95557095  0.55161860     0.17740
F1504       F  0.99644981  0.92322466  0.54218718    -0.20020
C1505       C  0.40436329  0.75668942  0.60434456    -0.21450
C1506       C  0.39292018  0.78496927  0.60357897    -0.09500
C1507       C  0.39225974  0.80177724  0.63061302     0.29360
C1508       C  0.40329551  0.79044905  0.65788188    -0.21450
C1509       C  0.41570387  0.76237140  0.65844907    -0.09510
C1510       C  0.41574643  0.74547307  0.63126841     0.29370
F1511       F  0.42780493  0.71848044  0.63021251    -0.20030
H1512       H  0.40636011  0.74393709  0.58334747     0.17730
H1513       H  0.40239137  0.80380215  0.67848096     0.17740
F1514       F  0.38244485  0.82963908  0.63019743    -0.20020
C1515       C  0.34713751  0.90496916  0.49162735    -0.21450
C1516       C  0.37235711  0.89139449  0.50260250    -0.09500
C1517       C  0.39789576  0.90824373  0.50541111     0.29360
C1518       C  0.39834490  0.93734355  0.49718585    -0.21450
C1519       C  0.37323249  0.95130937  0.48724030    -0.09510
C1520       C  0.34735012  0.93501036  0.48467530     0.29370
F1521       F  0.32256575  0.94796818  0.47526504    -0.20030
H1522       H  0.32720712  0.89262583  0.48934748     0.17730
H1523       H  0.41843219  0.94937962  0.49985085     0.17740
F1524       F  0.42283200  0.89677253  0.51639291    -0.20020
C1525       C  0.36261088  0.68869377  0.53267797    -0.21450
C1526       C  0.37051128  0.70051396  0.50410576    -0.09500
C1527       C  0.37195969  0.68191102  0.47820758     0.29360
C1528       C  0.36708823  0.65197185  0.48122308    -0.21450
C1529       C  0.36126814  0.63981350  0.51014035    -0.09510
C1530       C  0.35836871  0.65859243  0.53580379     0.29370
F1531       F  0.35239581  0.64772926  0.56410502    -0.20030
H1532       H  0.36119010  0.70255565  0.55289141     0.17730
H1533       H  0.36970610  0.63805138  0.46116240     0.17740
F1534       F  0.37873577  0.69257785  0.44998876    -0.20020
C1535       C  0.32640518  0.77721080  0.40556875    -0.21450
C1536       C  0.35594580  0.77158853  0.41060134    -0.09500
C1537       C  0.37146336  0.75390435  0.38925017     0.29360
C1538       C  0.35814805  0.74376751  0.36261885    -0.21450
C1539       C  0.32934140  0.75136153  0.35645219    -0.09510
C1540       C  0.31328330  0.76751958  0.37858778     0.29370
F1541       F  0.28532760  0.77527804  0.37326429    -0.20030
H1542       H  0.31375750  0.79004443  0.42196827     0.17730
H1543       H  0.37109575  0.73187467  0.34568008     0.17740
F1544       F  0.39966591  0.74657283  0.39387737    -0.20020
C1545       C  0.01710938  0.78217757  0.54466238    -0.21450
C1546       C  0.49225490  0.76515209  0.53963731    -0.09500
C1547       C  0.49213117  0.73571223  0.54812322     0.29360
C1548       C  0.01803545  0.72250181  0.55638577    -0.21450
C1549       C  0.04404848  0.73847241  0.55520893    -0.09510
C1550       C  0.04306273  0.76885122  0.55244910     0.29370
F1551       F  0.06791331  0.78484940  0.55262408    -0.20030
H1552       H  0.01734011  0.80518890  0.53937756     0.17730
H1553       H  0.01835334  0.69905634  0.55902374     0.17740
F1554       F  0.46777361  0.71916897  0.54567138    -0.20020
C1555       C  0.00647390  0.83906894  0.44780515    -0.21450
C1556       C  0.47938556  0.85282633  0.45239069    -0.09500
C1557       C  0.47836812  0.88349654  0.45259852     0.29360
C1558       C  0.00417881  0.89972455  0.45251034    -0.21450
C1559       C  0.03134181  0.88564739  0.45260825    -0.09510
C1560       C  0.03226772  0.85524911  0.44818064     0.29370
F1561       F  0.05810212  0.84087701  0.44724155    -0.20030
H1562       H  0.00799741  0.81552910  0.44735580     0.17730
H1563       H  0.00278905  0.92310423  0.45572998     0.17740
F1564       F  0.45258449  0.89772534  0.45578366    -0.20020
C1565       C  0.19842159  0.48190844  0.37841962    -0.21450
C1566       C  0.18103870  0.98469456  0.35252646    -0.09500
C1567       C  0.15141577  0.97743510  0.35473863     0.29360
C1568       C  0.13954137  0.96691229  0.38217915    -0.21450
C1569       C  0.15695276  0.96326611  0.40809763    -0.09510
C1570       C  0.18650554  0.97168589  0.40613984     0.29370
F1571       F  0.20411401  0.46959256  0.43069164    -0.20030
H1572       H  0.22156699  0.48626075  0.37671277     0.17730
H1573       H  0.11671665  0.96102300  0.38283677     0.17740
F1574       F  0.13451861  0.97806827  0.32950823    -0.20020
C1575       C  0.16140338  0.54594834  0.15646082    -0.21450
C1576       C  0.16601369  0.51570408  0.15812500    -0.09500
C1577       C  0.15684585  0.49796770  0.13346590     0.29360
C1578       C  0.14479277  0.51042223  0.10747430    -0.21450
C1579       C  0.14200769  0.54067046  0.10512598    -0.09510
C1580       C  0.14984873  0.55835471  0.13007855     0.29370
F1581       F  0.14822466  0.58777938  0.12797974    -0.20030
H1582       H  0.16752520  0.56015712  0.17522142     0.17730
H1583       H  0.14004115  0.99653178  0.08795668     0.17740
F1584       F  0.16015866  0.96859411  0.13388749    -0.20020
C1585       C  0.23343807  0.86619282  0.19692416    -0.21450
C1586       C  0.24691502  0.89337522  0.20095960    -0.09500
C1587       C  0.27755382  0.89481438  0.20004633     0.29360
C1588       C  0.29407650  0.86923328  0.19976622    -0.21450
C1589       C  0.28029124  0.84195927  0.20084632    -0.09510
C1590       C  0.24993883  0.84060848  0.19709686     0.29370
F1591       F  0.23591859  0.81458171  0.19692404    -0.20030
H1592       H  0.20992426  0.86442819  0.19723870     0.17730
H1593       H  0.31742121  0.87091487  0.20236655     0.17740
F1594       F  0.29146268  0.92077242  0.20274568    -0.20020
C1595       C  0.15725009  0.83307338  0.30544218    -0.21450
C1596       C  0.12673259  0.83313591  0.30615187    -0.09500
C1597       C  0.11173088  0.85977940  0.30597719     0.29360
C1598       C  0.12675762  0.88505960  0.29823763    -0.21450
C1599       C  0.15675527  0.88389453  0.29165267    -0.09510
C1600       C  0.17235939  0.85840825  0.29816505     0.29370
F1601       F  0.20160986  0.85681755  0.29347917    -0.20030
H1602       H  0.16911578  0.81269902  0.30619139     0.17730
H1603       H  0.11454908  0.90489771  0.29467242     0.17740
F1604       F  0.08220862  0.86067913  0.30789206    -0.20020
C1605       C  0.42012408  0.99076910  0.09911532    -0.21450
C1606       C  0.43268078  0.96499185  0.08724021    -0.09500
C1607       C  0.45512554  0.95166365  0.10328170     0.29360
C1608       C  0.46192536  0.96174470  0.13273522    -0.21450
C1609       C  0.44647095  0.98521044  0.14635196    -0.09510
C1610       C  0.42709137  0.00102251  0.12838511     0.29370
F1611       F  0.41153533  0.52349539  0.14075671    -0.20030
H1612       H  0.40266244  0.00127062  0.08700429     0.17730
H1613       H  0.47691366  0.94919110  0.14625414     0.17740
F1614       F  0.46752070  0.92670519  0.09244802    -0.20020
C1615       C  0.33550370  0.01082486  0.27054965    -0.21450
C1616       C  0.34604988  0.51236605  0.24026166    -0.09500
C1617       C  0.32627307  0.51652893  0.21644855     0.29360
C1618       C  0.29615334  0.51742917  0.22297129    -0.21450
C1619       C  0.28555849  0.51340841  0.25315577    -0.09510
C1620       C  0.30566263  0.01093514  0.27700884     0.29370
F1621       F  0.29638062  0.00640594  0.30636522    -0.20030
H1622       H  0.35046126  0.00742663  0.28914579     0.17730
H1623       H  0.28109683  0.51879576  0.20415912     0.17740
F1624       F  0.33598441  0.51851768  0.18694826    -0.20020
C1625       C  0.04741902  0.00776232  0.22886909    -0.21450
C1626       C  0.03463894  0.51378307  0.25771185    -0.09500
C1627       C  0.05272776  0.51693430  0.28330166     0.29360
C1628       C  0.08281708  0.51251963  0.28025342    -0.21450
C1629       C  0.09524013  0.50416208  0.25186161    -0.09510
C1630       C  0.07736141  0.00271197  0.22594136     0.29370
F1631       F  0.08871632  0.99573595  0.19783647    -0.20030
H1632       H  0.03397047  0.00506461  0.20887873     0.17730
H1633       H  0.09616021  0.51416297  0.30042192     0.17740
F1634       F  0.04117680  0.52325771  0.31147242    -0.20020
C1635       C  0.37939024  0.52972795  0.38072926    -0.21450
C1636       C  0.39342492  0.55161163  0.39740384    -0.09500
C1637       C  0.41544250  0.56811877  0.38263489     0.29360
C1638       C  0.42549757  0.56043699  0.35305605    -0.21450
C1639       C  0.41406487  0.53592662  0.33824756    -0.09510
C1640       C  0.38990477  0.52157430  0.35162398     0.29370
F1641       F  0.37838792  0.99767268  0.33790141    -0.20030
H1642       H  0.36272676  0.01648340  0.39165967     0.17730
H1643       H  0.44408663  0.57172554  0.34318792     0.17740
F1644       F  0.42925666  0.58970108  0.39807300    -0.20020
C1645       C  0.02344753  0.89422755  0.24263546    -0.21450
C1646       C  0.49294018  0.89227955  0.24349887    -0.09500
C1647       C  0.47988878  0.86452455  0.24255690     0.29360
C1648       C  0.49709627  0.83938504  0.24319228    -0.21450
C1649       C  0.02758716  0.84136270  0.24389242    -0.09510
C1650       C  0.04066274  0.86909480  0.24237600     0.29370
F1651       F  0.07004814  0.87210286  0.24267800    -0.20030
H1652       H  0.03402176  0.91531257  0.24303831     0.17730
H1653       H  0.48651157  0.81831659  0.24402681     0.17740
F1654       F  0.45048662  0.86158880  0.24308939    -0.20020
C1655       C  0.36086205  0.90335829  0.30381665    -0.21450
C1656       C  0.39133334  0.90351916  0.30531904    -0.09500
C1657       C  0.40639509  0.87698035  0.30713446     0.29360
C1658       C  0.39180587  0.85107935  0.30099710    -0.21450
C1659       C  0.36214675  0.85153604  0.29385185    -0.09510
C1660       C  0.34618390  0.87742286  0.29809286     0.29370
F1661       F  0.31723430  0.87850353  0.29250795    -0.20030
H1662       H  0.34890441  0.92367236  0.30292984     0.17730
H1663       H  0.40425626  0.83109346  0.29895286     0.17740
F1664       F  0.43581502  0.87633455  0.30954688    -0.20020
Fe1665     Fe  0.96106144  0.46781813  0.29036577     1.65780
Fe1666     Fe  0.91786114  0.45229043  0.23245528     1.73250
Fe1667     Fe  0.94079504  0.02085683  0.24256581     1.54410
O1668       O  0.93883893  0.03530513  0.28894779    -0.81820
O1669       O  0.93953399  0.46166853  0.19278424    -0.80130
O1670       O  0.93527177  0.49449325  0.31635179    -0.84330
O1671       O  0.99275766  0.49976317  0.28590749    -0.79180
O1672       O  0.89600827  0.02326901  0.24480777    -0.80960
O1673       O  0.94886958  0.41931069  0.23929741    -0.83700
C1674       C  0.00267174  0.01150279  0.26163864     0.97060
C1675       C  0.93023234  0.02138176  0.31284711     1.04500
O1676       O  0.94022561  0.48041426  0.25457948    -1.12690
O1677       O  0.89531035  0.44246450  0.27171445    -0.75120
O1678       O  0.93304083  0.43364024  0.30081766    -0.78600
O1679       O  0.98593250  0.01948754  0.24038217    -0.79290
C1680       C  0.90696190  0.42882048  0.29328695     0.95970
O1681       O  0.98595412  0.43987229  0.26379471    -0.77250
O1682       O  0.88394421  0.48114212  0.22285506    -0.82440
C1683       C  0.94305534  0.98613896  0.18013000     0.98590
C1684       C  0.87712940  0.00572428  0.23464336     1.04510
O1685       O  0.94104577  0.01025853  0.19504436    -0.78090
C1686       C  0.97511613  0.41884915  0.24858759     1.02810
Fe1687     Fe  0.72265797  0.44804877  0.27271560     1.65780
Fe1688     Fe  0.66920092  0.44893570  0.22234774     1.73250
Fe1689     Fe  0.68922618  0.01121788  0.25702090     1.54410
O1690       O  0.69485691  0.00713335  0.30491091    -0.81820
O1691       O  0.68176202  0.47523469  0.18694439    -0.80130
O1692       O  0.70356220  0.45985188  0.31278662    -0.84330
O1693       O  0.75152276  0.48200259  0.27534591    -0.79180
O1694       O  0.64495897  0.00793431  0.26619028    -0.80960
O1695       O  0.70208640  0.41874243  0.21020138    -0.83700
C1696       C  0.75504307  0.00428538  0.25885914     0.97060
C1697       C  0.69461604  0.48447162  0.32188903     1.04500
O1698       O  0.69364378  0.46974927  0.25051247    -1.12690
O1699       O  0.65477663  0.42343461  0.25777688    -0.75120
O1700       O  0.69794167  0.41055425  0.27494209    -0.78600
O1701       O  0.73364268  0.01730910  0.24686948    -0.79290
C1702       C  0.67053569  0.40760877  0.27438587     0.95970
O1703       O  0.74209102  0.43506755  0.23237521    -0.77250
O1704       O  0.63317687  0.47550316  0.23029324    -0.82440
C1705       C  0.67721949  0.00253604  0.18664164     0.98590
C1706       C  0.62624712  0.99547223  0.24944351     1.04510
O1707       O  0.67963437  0.01845128  0.21072470    -0.78090
C1708       C  0.72957483  0.41781215  0.21404099     1.02810
Fe1709     Fe  0.92679471  0.32758169  0.52428071     1.65780
Fe1710     Fe  0.92500554  0.27410514  0.47293497     1.73250
Fe1711     Fe  0.86326462  0.29538333  0.50963724     1.54410
O1712       O  0.86921781  0.30125302  0.55777993    -0.81820
O1713       O  0.89764800  0.28502077  0.43835471    -0.80130
O1714       O  0.91733322  0.30656768  0.56337442    -0.84330
O1715       O  0.89137079  0.35369481  0.53209872    -0.79180
O1716       O  0.86585462  0.25088049  0.51782977    -0.80960
O1717       O  0.95392505  0.30791751  0.46007510    -0.83700
C1718       C  0.87346329  0.36025638  0.51184290     0.97060
C1719       C  0.89256508  0.29891885  0.57344611     1.04500
O1720       O  0.90468063  0.29867448  0.50195577    -1.12690
O1721       O  0.95175987  0.26089362  0.50736496    -0.75120
O1722       O  0.96524134  0.30486575  0.52210747    -0.78600
O1723       O  0.85861271  0.34017962  0.49933442    -0.79290
C1724       C  0.96810293  0.27751542  0.52268509     0.95970
O1725       O  0.93727463  0.34783287  0.48383831    -0.77250
O1726       O  0.89911623  0.23799265  0.48225614    -0.82440
C1727       C  0.87012371  0.28196301  0.43896369     0.98590
C1728       C  0.87886660  0.23162981  0.50139325     1.04510
O1729       O  0.85471047  0.28553041  0.46348513    -0.78090
C1730       C  0.95463160  0.33549733  0.46478722     1.02810
Fe1731     Fe  0.90726845  0.06726607  0.54274688     1.65780
Fe1732     Fe  0.92580621  0.02675442  0.48240620     1.73250
Fe1733     Fe  0.85613750  0.04526349  0.49316045     1.54420
O1734       O  0.84036632  0.04289783  0.53918991    -0.81820
O1735       O  0.91621994  0.05027033  0.44458653    -0.80130
O1736       O  0.88048822  0.04059503  0.56725939    -0.84330
O1737       O  0.87476881  0.09834486  0.53829963    -0.79180
O1738       O  0.85600507  0.50008949  0.49396246    -0.80960
O1739       O  0.95765657  0.05777975  0.49214978    -0.83700
C1740       C  0.86347767  0.10779666  0.51392400     0.97060
C1741       C  0.85379025  0.03513781  0.56333250     1.04500
O1742       O  0.89629562  0.04667136  0.50584622    -1.12690
O1743       O  0.93579649  0.00280791  0.51989044    -0.75120
O1744       O  0.94154694  0.03937045  0.55265208    -0.78600
O1745       O  0.85594933  0.09059174  0.49239659    -0.79290
C1746       C  0.94744995  0.01373035  0.54335200     0.95970
O1747       O  0.93541466  0.09352622  0.51826778    -0.77250
O1748       O  0.89831157  0.49291597  0.46960537    -0.82440
C1749       C  0.89199993  0.05025603  0.43127931     0.98590
C1750       C  0.87528618  0.48317738  0.48256090     1.04510
O1751       O  0.86791755  0.04562170  0.44576817    -0.78090
C1752       C  0.95708505  0.08369962  0.50285833     1.02810
Fe1753     Fe  0.71035472  0.22039416  0.79932526     1.65780
Fe1754     Fe  0.67019610  0.19998194  0.74166469     1.73250
Fe1755     Fe  0.69082217  0.26893089  0.74566557     1.54410
O1756       O  0.68875846  0.28744882  0.79051751    -0.81820
O1757       O  0.69634045  0.20656559  0.70491231    -0.80130
O1758       O  0.68387791  0.24917908  0.82168337    -0.84330
O1759       O  0.74224018  0.25204408  0.79192083    -0.79180
O1760       O  0.64605346  0.27105107  0.74726000    -0.80960
O1761       O  0.70004623  0.16751615  0.75373574    -0.83700
C1762       C  0.75241965  0.26089873  0.76628496     0.97060
C1763       C  0.67942370  0.27571819  0.81547154     1.04500
O1764       O  0.69049222  0.22999785  0.76219199    -1.12690
O1765       O  0.64503368  0.19403973  0.77975884    -0.75120
O1766       O  0.68133248  0.18678383  0.81135642    -0.78600
O1767       O  0.73584565  0.26714138  0.74419083    -0.79290
C1768       C  0.65568218  0.18117906  0.80238642     0.95970
O1769       O  0.73644446  0.19064693  0.77636963    -0.77250
O1770       O  0.63725624  0.22780740  0.72626995    -0.82440
C1771       C  0.69373206  0.22816018  0.68763670     0.98590
C1772       C  0.62855854  0.25266637  0.73600055     1.04510
O1773       O  0.69018089  0.25389328  0.69881739    -0.78090
C1774       C  0.72638648  0.16845339  0.76255486     1.02810
Fe1775     Fe  0.97599495  0.19775079  0.77181844     1.65780
Fe1776     Fe  0.91852692  0.19683759  0.72614741     1.73250
Fe1777     Fe  0.93970379  0.26038177  0.75763830     1.54420
O1778       O  0.94702886  0.25700790  0.80527783    -0.81820
O1779       O  0.92861472  0.22221541  0.68909852    -0.80130
O1780       O  0.96133414  0.21111912  0.81347279    -0.84330
O1781       O  0.00535189  0.23114486  0.76933167    -0.79180
O1782       O  0.89566527  0.25726010  0.76886211    -0.80960
O1783       O  0.95022950  0.16608572  0.71253907    -0.83700
C1784       C  0.00636501  0.25413834  0.75369705     0.97060
C1785       C  0.95066962  0.23501388  0.82275122     1.04500
O1786       O  0.94471887  0.21870990  0.75182070    -1.12690
O1787       O  0.90681445  0.17208044  0.76323578    -0.75120
O1788       O  0.95123695  0.16064874  0.77841680    -0.78600
O1789       O  0.98356351  0.26750593  0.74544359    -0.79290
C1790       C  0.92390985  0.15667664  0.77885647     0.95970
O1791       O  0.99178535  0.18301691  0.73038410    -0.77250
O1792       O  0.88275191  0.22321529  0.73535387    -0.82440
C1793       C  0.92555454  0.24972998  0.68783150     0.98590
C1794       C  0.87634689  0.24395062  0.75370645     1.04510
O1795       O  0.92864581  0.26633665  0.71135471    -0.78090
C1796       C  0.97787418  0.16498236  0.71419558     1.02810
Fe1797     Fe  0.65812934  0.31730164  0.04460660     1.65780
Fe1798     Fe  0.67646877  0.27851003  0.98302644     1.73250
Fe1799     Fe  0.60681819  0.29618350  0.99465993     1.54420
O1800       O  0.59127077  0.29230439  0.04059048    -0.81820
O1801       O  0.66676270  0.30333304  0.94624064    -0.80130
O1802       O  0.63152623  0.28985803  0.06841218    -0.84330
O1803       O  0.62557848  0.34855542  0.04109916    -0.79180
O1804       O  0.60711400  0.25092930  0.99416043    -0.80960
O1805       O  0.70842651  0.30906307  0.99391794    -0.83700
C1806       C  0.61406311  0.35837792  0.01698321     0.97060
C1807       C  0.60493820  0.28394665  0.06434065     1.04500
O1808       O  0.64701563  0.29767208  0.00718425    -1.12690
O1809       O  0.68634521  0.25334727  0.01967695    -0.75120
O1810       O  0.69254849  0.28909829  0.05335461    -0.78600
O1811       O  0.60621351  0.34148209  0.99531727    -0.79290
C1812       C  0.69840695  0.26371561  0.04318119     0.95970
O1813       O  0.68621427  0.34425524  0.02085887    -0.77250
O1814       O  0.64895965  0.24530184  0.96871650    -0.82440
C1815       C  0.64252782  0.30375647  0.93293619     0.98590
C1816       C  0.62645604  0.23466280  0.98184753     1.04510
O1817       O  0.61850002  0.29824876  0.94722259    -0.78090
C1818       C  0.70798916  0.33466001  0.00544357     1.02810
Fe1819     Fe  0.68094288  0.07772012  0.02520947     1.65780
Fe1820     Fe  0.68021309  0.02200637  0.97647633     1.73250
Fe1821     Fe  0.61729168  0.04611276  0.00882704     1.54420
O1822       O  0.62093560  0.05331254  0.05687802    -0.81820
O1823       O  0.65503487  0.03274945  0.93999638    -0.80130
O1824       O  0.66857525  0.05980268  0.06511353    -0.84330
O1825       O  0.64676212  0.10609387  0.02912975    -0.79180
O1826       O  0.61824082  0.50184245  0.01870633    -0.80960
O1827       O  0.71086304  0.05416596  0.96354803    -0.83700
C1828       C  0.62831219  0.11137994  0.00894266     0.97060
C1829       C  0.64331599  0.05263366  0.07413113     1.04500
O1830       O  0.65911140  0.04826715  0.00335012    -1.12690
O1831       O  0.70504115  0.00925565  0.01284458    -0.75120
O1832       O  0.71849965  0.05343539  0.02703817    -0.78600
O1833       O  0.61376182  0.09066654  0.99714239    -0.79290
C1834       C  0.72118655  0.02606179  0.02824766     0.95970
O1835       O  0.69410339  0.09534403  0.98432688    -0.77250
O1836       O  0.65283801  0.48697928  0.98557078    -0.82440
C1837       C  0.62741765  0.03150176  0.93876924     0.98590
C1838       C  0.63149013  0.48176717  0.00372000     1.04510
O1839       O  0.61089311  0.03540227  0.96243548    -0.78090
C1840       C  0.71177789  0.08188420  0.96659758     1.02810
Fe1841     Fe  0.60879981  0.16921513  0.54376392     1.65780
Fe1842     Fe  0.59467352  0.21011508  0.48400388     1.73250
Fe1843     Fe  0.66266979  0.18706427  0.49481852     1.54420
O1844       O  0.67628943  0.18840105  0.54110021    -0.81820
O1845       O  0.60476216  0.18687046  0.44530231    -0.80130
O1846       O  0.63515879  0.19543787  0.56842919    -0.84330
O1847       O  0.64103786  0.13809615  0.54030196    -0.79180
O1848       O  0.66566974  0.23202121  0.49604738    -0.80960
O1849       O  0.56134041  0.17976196  0.49257201    -0.83700
C1850       C  0.65060989  0.12604931  0.51593673     0.97060
C1851       C  0.66262702  0.19638520  0.56569482     1.04500
O1852       O  0.62212015  0.18867140  0.50708720    -1.12690
O1853       O  0.58418300  0.23402894  0.52226275    -0.75120
O1854       O  0.57452470  0.19726748  0.55311074    -0.78600
O1855       O  0.65979002  0.14149584  0.49357635    -0.79290
C1856       C  0.56998449  0.22305052  0.54437095     0.95970
O1857       O  0.58153827  0.14348445  0.51851791    -0.77250
O1858       O  0.62434832  0.24306261  0.47281698    -0.82440
C1859       C  0.62956004  0.18595166  0.43231592     0.98590
C1860       C  0.64868547  0.25046132  0.48414183     1.04510
O1861       O  0.65320555  0.18796300  0.44732283    -0.78090
C1862       C  0.56085149  0.15380120  0.50293784     1.02810
Fe1863     Fe  0.58964227  0.40238308  0.52200629     1.65780
Fe1864     Fe  0.58964776  0.46022714  0.47578397     1.73250
Fe1865     Fe  0.65261086  0.43861417  0.50707738     1.54420
O1866       O  0.64902523  0.43093498  0.55458973    -0.81820
O1867       O  0.61576200  0.45032859  0.43856215    -0.80130
O1868       O  0.60327469  0.41624947  0.56342953    -0.84330
O1869       O  0.62281431  0.37262670  0.51774891    -0.79180
O1870       O  0.64883403  0.48229063  0.51828054    -0.80960
O1871       O  0.55869760  0.42891521  0.46270087    -0.83700
C1872       C  0.64684292  0.37205820  0.50314153     0.97060
C1873       C  0.62702620  0.42682725  0.57246412     1.04500
O1874       O  0.61098199  0.43363823  0.50147355    -1.12690
O1875       O  0.56429087  0.47190886  0.51292057    -0.75120
O1876       O  0.55290529  0.42775750  0.52999759    -0.78600
O1877       O  0.66044421  0.39502887  0.49530697    -0.79290
C1878       C  0.54881619  0.45509906  0.52940504     0.95970
O1879       O  0.57429932  0.38708150  0.48118879    -0.77250
O1880       O  0.61582727  0.49605287  0.48466496    -0.82440
C1881       C  0.64333494  0.45332425  0.43739970     0.98590
C1882       C  0.63575048  0.00184685  0.50350442     1.04510
O1883       O  0.65924194  0.44989671  0.46091417    -0.78090
C1884       C  0.55681546  0.40132726  0.46501775     1.02810
Fe1885     Fe  0.81375944  0.01532304  0.79541286     1.65780
Fe1886     Fe  0.85514672  0.03242964  0.73524472     1.73250
Fe1887     Fe  0.83250972  0.46352234  0.74409605     1.54420
O1888       O  0.83405805  0.44780035  0.78988358    -0.81820
O1889       O  0.83262223  0.02369148  0.69649073    -0.80130
O1890       O  0.83988203  0.48780955  0.81869919    -0.84330
O1891       O  0.78243750  0.48337605  0.79102978    -0.79180
O1892       O  0.87745837  0.46144212  0.74458383    -0.80960
O1893       O  0.82420058  0.06523971  0.74549161    -0.83700
C1894       C  0.77120193  0.47394162  0.76652352     0.97060
C1895       C  0.84265061  0.46062199  0.81438732     1.04500
O1896       O  0.83351630  0.00372629  0.75773295    -1.12690
O1897       O  0.87865337  0.04167529  0.77333369    -0.75120
O1898       O  0.84184766  0.04927790  0.80565740    -0.78600
O1899       O  0.78711517  0.46533986  0.74399604    -0.79290
C1900       C  0.86756871  0.05460708  0.79637643     0.95970
O1901       O  0.78814438  0.04380707  0.77190290    -0.77250
O1902       O  0.88877310  0.00365439  0.72254048    -0.82440
C1903       C  0.83002113  0.49941173  0.68289993     0.98590
C1904       C  0.89609410  0.47946118  0.73422689     1.04510
O1905       O  0.83252143  0.47510061  0.69690605    -0.78090
C1906       C  0.79826143  0.06520152  0.75673892     1.02810
Fe1907     Fe  0.55062150  0.03742458  0.77405081     1.65780
Fe1908     Fe  0.60678268  0.03551215  0.72468211     1.73250
Fe1909     Fe  0.58349689  0.47343355  0.75853820     1.54420
O1910       O  0.57671249  0.47894551  0.80655503    -0.81820
O1911       O  0.59819974  0.50784295  0.68869314    -0.80130
O1912       O  0.56878375  0.02664705  0.81405746    -0.84330
O1913       O  0.52174329  0.50358431  0.77777458    -0.79180
O1914       O  0.62766298  0.47520371  0.76721295    -0.80960
O1915       O  0.57374453  0.06428950  0.71068583    -0.83700
C1916       C  0.51782148  0.48172840  0.76060383     0.97060
C1917       C  0.57729577  0.50210179  0.82322476     1.04500
O1918       O  0.58048813  0.01505712  0.75205767    -1.12690
O1919       O  0.61846617  0.06272559  0.76005908    -0.75120
O1920       O  0.57433728  0.07557082  0.77574391    -0.78600
O1921       O  0.53923125  0.46817963  0.74832380    -0.79290
C1922       C  0.60166573  0.07887002  0.77600888     0.95970
O1923       O  0.53275421  0.04908082  0.73343599    -0.77250
O1924       O  0.64257045  0.51031960  0.73542522    -0.82440
C1925       C  0.59878480  0.48010396  0.68844749     0.98590
C1926       C  0.64766954  0.48943780  0.75349949     1.04510
O1927       O  0.59367720  0.46494160  0.71240772    -0.78090
C1928       C  0.54607648  0.06550268  0.71459453     1.02810
Fe1929     Fe  0.55852338  0.26764786  0.29201514     1.65780
Fe1930     Fe  0.60375594  0.28199204  0.23406271     1.73250
Fe1931     Fe  0.58165546  0.21336726  0.24523881     1.54410
O1932       O  0.58327735  0.20063597  0.29199600    -0.81820
O1933       O  0.58386628  0.27118585  0.19440527    -0.80130
O1934       O  0.58393093  0.24246330  0.31857751    -0.84330
O1935       O  0.52767139  0.23494645  0.28848655    -0.79180
O1936       O  0.62642244  0.21150828  0.24654217    -0.80960
O1937       O  0.57198871  0.31461118  0.24029794    -0.83700
C1938       C  0.51887660  0.22232686  0.26442597     0.97060
C1939       C  0.59054227  0.21576442  0.31556349     1.04500
O1940       O  0.58100945  0.25417674  0.25652797    -1.12690
O1941       O  0.62451937  0.29310150  0.27336181    -0.75120
O1942       O  0.58542755  0.30269628  0.30179897    -0.78600
O1943       O  0.53655907  0.21369489  0.24353480    -0.79290
C1944       C  0.61181586  0.30737262  0.29452685     0.95970
O1945       O  0.53412026  0.29423366  0.26471915    -0.77250
O1946       O  0.63846390  0.25358055  0.22483223    -0.82440
C1947       C  0.58046194  0.24635087  0.18221197     0.98590
C1948       C  0.64529922  0.22891888  0.23572160     1.04510
O1949       O  0.58205989  0.22262284  0.19745261    -0.78090
C1950       C  0.54535186  0.31500962  0.24935504     1.02810
Fe1951     Fe  0.79657843  0.28637108  0.27250658     1.65780
Fe1952     Fe  0.85462315  0.28472164  0.22529923     1.73250
Fe1953     Fe  0.83245949  0.22290567  0.25961939     1.54420
O1954       O  0.82437781  0.22807039  0.30725253    -0.81820
O1955       O  0.84449559  0.25796778  0.18937924    -0.80130
O1956       O  0.80994211  0.27420313  0.31432485    -0.84330
O1957       O  0.76672930  0.25328309  0.27092617    -0.79180
O1958       O  0.87620264  0.22655525  0.26975784    -0.80960
O1959       O  0.82368191  0.31557678  0.21178165    -0.83700
C1960       C  0.76602528  0.22911470  0.25690974     0.97060
C1961       C  0.81986550  0.25053228  0.32432520     1.04500
O1962       O  0.82785036  0.26428887  0.25243230    -1.12690
O1963       O  0.86642272  0.31067395  0.26130711    -0.75120
O1964       O  0.82210747  0.32317732  0.27800148    -0.78600
O1965       O  0.78892477  0.21527500  0.24883031    -0.79290
C1966       C  0.84952973  0.32670782  0.27740120     0.95970
O1967       O  0.78173055  0.29988493  0.23108461    -0.77250
O1968       O  0.88988382  0.25813095  0.23403229    -0.82440
C1969       C  0.84747233  0.23040527  0.18920848     0.98590
C1970       C  0.89579373  0.23850789  0.25327281     1.04510
O1971       O  0.84388325  0.21495128  0.21334393    -0.78090
C1972       C  0.79603978  0.31707266  0.21408220     1.02810
Fe1973     Fe  0.84215295  0.15394627  0.02209450     1.65780
Fe1974     Fe  0.84370200  0.20982978  0.97356611     1.73250
Fe1975     Fe  0.90528758  0.18980048  0.00835650     1.54410
O1976       O  0.90014462  0.18267953  0.05591349    -0.81820
O1977       O  0.87126656  0.19859282  0.93792500    -0.80130
O1978       O  0.85374556  0.16944442  0.06350251    -0.84330
O1979       O  0.87584895  0.12465977  0.02137579    -0.79180
O1980       O  0.90057757  0.23372204  0.01848227    -0.80960
O1981       O  0.81339033  0.17782061  0.96061835    -0.83700
C1982       C  0.89997281  0.12341589  0.00699698     0.97060
C1983       C  0.87762541  0.17910211  0.07320665     1.04500
O1984       O  0.86404632  0.18449531  0.00129141    -1.12690
O1985       O  0.81697467  0.22285657  0.00917043    -0.75120
O1986       O  0.80487704  0.17915904  0.02693552    -0.78600
O1987       O  0.91339804  0.14600857  0.99769587    -0.79290
C1988       C  0.80107760  0.20652766  0.02575585     0.95970
O1989       O  0.82923601  0.13697297  0.98107329    -0.77250
O1990       O  0.86968990  0.24580540  0.98209629    -0.82440
C1991       C  0.89871816  0.20261104  0.93786939     0.98590
C1992       C  0.88864833  0.25261999  0.00171980     1.04510
O1993       O  0.91371711  0.20034648  0.96220149    -0.78090
C1994       C  0.81187057  0.15030863  0.96395640     1.02810
Fe1995     Fe  0.86191272  0.41854339  0.04618374     1.65780
Fe1996     Fe  0.84405069  0.46341789  0.99045700     1.73250
Fe1997     Fe  0.91241141  0.43809984  0.99352892     1.54420
O1998       O  0.92926331  0.44022282  0.03849642    -0.81820
O1999       O  0.85053087  0.44351853  0.94911091    -0.80130
O2000       O  0.89004264  0.44410679  0.06958061    -0.84330
O2001       O  0.89343309  0.38666933  0.03958970    -0.79180
O2002       O  0.91645465  0.48282954  0.99432859    -0.80960
O2003       O  0.81141118  0.43226153  0.99918848    -0.83700
C2004       C  0.90346127  0.37643078  0.01447103     0.97060
C2005       C  0.91671695  0.44891786  0.06348937     1.04500
O2006       O  0.87285612  0.43966027  0.00930391    -1.12690
O2007       O  0.83718409  0.48450671  0.03134422    -0.75120
O2008       O  0.82794246  0.44600656  0.05941942    -0.78600
O2009       O  0.91016227  0.39301648  0.99227092    -0.79290
C2010       C  0.82287147  0.47217440  0.05245782     0.95970
O2011       O  0.83272206  0.39436582  0.02163975    -0.77250
O2012       O  0.87268485  0.49715579  0.97934064    -0.82440
C2013       C  0.87385971  0.43744105  0.93453835     0.98590
C2014       C  0.89879366  0.00258066  0.98672126     1.04510
O2015       O  0.89881814  0.43743373  0.94726415    -0.78090
C2016       C  0.81132658  0.40568523  0.00783208     1.02810
C2017       C  0.90699613  0.08283003  0.96998272    -0.21450
C2018       C  0.91072863  0.09390976  0.99980843    -0.09500
C2019       C  0.91534388  0.07439243  0.02391706     0.29360
C2020       C  0.91446738  0.04433579  0.01854379    -0.21450
C2021       C  0.90782568  0.03330976  0.98936093    -0.09510
C2022       C  0.90509852  0.05269742  0.96481518     0.29370
F2023       F  0.89880829  0.04258133  0.93634998    -0.20030
H2024       H  0.90254298  0.09750776  0.95129972     0.17730
H2025       H  0.91626110  0.02971715  0.03780527     0.17740
F2026       F  0.91776549  0.08440454  0.05317231    -0.20020
C2027       C  0.90318116  0.29590098  0.03328585    -0.21450
C2028       C  0.89677889  0.28369200  0.00457498    -0.09500
C2029       C  0.89665666  0.30182927  0.97864291     0.29360
C2030       C  0.90118882  0.33179375  0.98175905    -0.21450
C2031       C  0.90543375  0.34437769  0.01078978    -0.09510
C2032       C  0.90718641  0.32601509  0.03649924     0.29370
F2033       F  0.91183726  0.33724930  0.06490161    -0.20030
H2034       H  0.90364598  0.28233282  0.05349448     0.17730
H2035       H  0.89966176  0.34536240  0.96163023     0.17740
F2036       F  0.89155793  0.29067307  0.95028388    -0.20020
C2037       C  0.85253784  0.18637464  0.15519879    -0.21450
C2038       C  0.85761850  0.21613025  0.16035659    -0.09500
C2039       C  0.87436712  0.23176597  0.13854102     0.29360
C2040       C  0.88418190  0.21825347  0.11143046    -0.21450
C2041       C  0.87717443  0.18914490  0.10531899    -0.09510
C2042       C  0.86190966  0.17304802  0.12777840     0.29370
F2043       F  0.85469639  0.14482363  0.12239215    -0.20030
H2044       H  0.84036464  0.17367804  0.17188224     0.17730
H2045       H  0.89532263  0.23120262  0.09416461     0.17740
F2046       F  0.88102872  0.26025552  0.14313656    -0.20020
C2047       C  0.72650719  0.22685207  0.21948823    -0.21450
C2048       C  0.73692345  0.21888176  0.24833758    -0.09500
C2049       C  0.71696935  0.21013413  0.27125491     0.29360
C2050       C  0.68701539  0.21079929  0.26581629    -0.21450
C2051       C  0.67650224  0.22131044  0.23788605    -0.09510
C2052       C  0.69652974  0.22840625  0.21434381     0.29370
F2053       F  0.68711594  0.23841280  0.18703129    -0.20030
H2054       H  0.74152264  0.23453069  0.20186987     0.17730
H2055       H  0.67198047  0.20558970  0.28442833     0.17740
F2056       F  0.72633210  0.20357181  0.29975178    -0.20020
C2057       C  0.94515075  0.23165538  0.22971557    -0.21450
C2058       C  0.92663830  0.22953993  0.25569162    -0.09500
C2059       C  0.93838843  0.22053074  0.28362851     0.29360
C2060       C  0.96846061  0.21616687  0.28594970    -0.21450
C2061       C  0.98712143  0.21984173  0.26030243    -0.09510
C2062       C  0.97503326  0.22661810  0.23185247     0.29370
F2063       F  0.99234954  0.23094046  0.20670620    -0.20030
H2064       H  0.93656682  0.23813268  0.20780333     0.17730
H2065       H  0.97736048  0.21110606  0.30813121     0.17740
F2066       F  0.92121760  0.21790416  0.30912866    -0.20020
C2067       C  0.93639476  0.48089456  0.77015909    -0.21450
C2068       C  0.92717040  0.47444209  0.74051513    -0.09500
C2069       C  0.94799006  0.46629840  0.71797010     0.29360
C2070       C  0.97782812  0.46580260  0.72515699    -0.21450
C2071       C  0.98705843  0.47368652  0.75477326    -0.09510
C2072       C  0.96574943  0.48023188  0.77746326     0.29370
F2073       F  0.97342917  0.98783459  0.80638235    -0.20030
H2074       H  0.92071397  0.98829116  0.78738966     0.17730
H2075       H  0.99377655  0.46122949  0.70709115     0.17740
F2076       F  0.93964341  0.46011007  0.68893770    -0.20020
C2077       C  0.72420225  0.49710557  0.78108460    -0.21450
C2078       C  0.73902555  0.47499278  0.76458748    -0.09500
C2079       C  0.72294310  0.45611434  0.74574656     0.29360
C2080       C  0.69267631  0.45982474  0.74327154    -0.21450
C2081       C  0.67834443  0.48256187  0.75920846    -0.09510
C2082       C  0.69433050  0.50106463  0.77816599     0.29370
F2083       F  0.68112117  0.02357469  0.79319822    -0.20030
H2084       H  0.73597586  0.01225936  0.79544453     0.17730
H2085       H  0.68058536  0.44560300  0.72819174     0.17740
F2086       F  0.73637963  0.43430409  0.72977548    -0.20020
C2087       C  0.83728110  0.42719345  0.85867064    -0.21450
C2088       C  0.85532773  0.44436382  0.83997408    -0.09500
C2089       C  0.88272507  0.45287174  0.85092283     0.29360
C2090       C  0.89069723  0.44681246  0.88102469    -0.21450
C2091       C  0.87103868  0.43299912  0.90101613    -0.09510
C2092       C  0.84494245  0.42164279  0.88907006     0.29370
F2093       F  0.82551889  0.40771611  0.90766445    -0.20030
H2094       H  0.81592344  0.42081138  0.85091608     0.17730
H2095       H  0.91070432  0.45599320  0.88963777     0.17740
F2096       F  0.90038873  0.47002724  0.83371037    -0.20020
C2097       C  0.62481118  0.48021489  0.63763746    -0.21450
C2098       C  0.60790021  0.46507919  0.65956970    -0.09500
C2099       C  0.60201345  0.43538391  0.65440699     0.29360
C2100       C  0.61115388  0.42190381  0.62696750    -0.21450
C2101       C  0.62683374  0.43748748  0.60445785    -0.09510
C2102       C  0.63436526  0.46657768  0.61047276     0.29370
F2103       F  0.64863886  0.98263570  0.58893815    -0.20030
H2104       H  0.63040382  0.00287717  0.64131211     0.17730
H2105       H  0.60458217  0.39962988  0.62251073     0.17740
F2106       F  0.58626096  0.41970516  0.67510634    -0.20020
C2107       C  0.61222060  0.16768077  0.38176639    -0.21450
C2108       C  0.62953461  0.18726489  0.39853919    -0.09500
C2109       C  0.63802893  0.21353744  0.38487585     0.29360
C2110       C  0.62692864  0.22132837  0.35649580    -0.21450
C2111       C  0.60726588  0.20309783  0.34103057    -0.09510
C2112       C  0.60152399  0.17529966  0.35287336     0.29370
F2113       F  0.58327318  0.15684676  0.33822388    -0.20030
H2114       H  0.60496094  0.14756327  0.39221581     0.17730
H2115       H  0.63208559  0.24272744  0.34760457     0.17740
F2116       F  0.65350909  0.23355129  0.40090265    -0.20020
C2117       C  0.66371790  0.07829909  0.48996818    -0.21450
C2118       C  0.64990685  0.09363745  0.51422060    -0.09500
C2119       C  0.63316171  0.07772477  0.53597465     0.29360
C2120       C  0.62999748  0.04761683  0.53307128    -0.21450
C2121       C  0.64312704  0.03263413  0.50851719    -0.09510
C2122       C  0.66031952  0.04800082  0.48708823     0.29370
F2123       F  0.67319504  0.03377421  0.46301736    -0.20030
H2124       H  0.67654589  0.08981069  0.47286246     0.17730
H2125       H  0.61623120  0.03609749  0.54938884     0.17740
F2126       F  0.61838948  0.09128131  0.55928289    -0.20020
C2127       C  0.64512590  0.30053371  0.46240985    -0.21450
C2128       C  0.65622801  0.28191740  0.48479900    -0.09500
C2129       C  0.67015049  0.29433224  0.51035327     0.29360
C2130       C  0.67019317  0.32463808  0.51479523    -0.21450
C2131       C  0.65714089  0.34299012  0.49346456    -0.09510
C2132       C  0.64569666  0.33077315  0.46659701     0.29370
F2133       F  0.63217099  0.34794828  0.44602251    -0.20030
H2134       H  0.63430197  0.29160020  0.44255742     0.17730
H2135       H  0.67830712  0.33359058  0.53606970     0.17740
F2136       F  0.68082430  0.27718982  0.53271700    -0.20020
C2137       C  0.61942575  0.01372347  0.85416151    -0.21450
C2138       C  0.59105782  0.00256878  0.85327381    -0.09500
C2139       C  0.57442510  0.50123092  0.88051783     0.29360
C2140       C  0.58611346  0.51114128  0.90824779    -0.21450
C2141       C  0.61437489  0.02303976  0.90905261    -0.09510
C2142       C  0.63101596  0.02395254  0.88157334     0.29370
F2143       F  0.65812899  0.03571825  0.88081966    -0.20030
H2144       H  0.63204395  0.01619571  0.83306871     0.17730
H2145       H  0.57296608  0.50963400  0.92906082     0.17740
F2146       F  0.54653379  0.49155747  0.88002877    -0.20020
C2147       C  0.78906968  0.10314445  0.94916957    -0.21450
C2148       C  0.78695924  0.13362222  0.95175952    -0.09500
C2149       C  0.75924595  0.14660517  0.95063008     0.29360
C2150       C  0.73424171  0.12921844  0.95145870    -0.21450
C2151       C  0.73642090  0.09872207  0.95328829    -0.09510
C2152       C  0.76406892  0.08576091  0.94980743     0.29370
F2153       F  0.76730930  0.05641970  0.95115146    -0.20030
H2154       H  0.81015779  0.09261708  0.94971447     0.17730
H2155       H  0.71320423  0.13975591  0.95365089     0.17740
F2156       F  0.75609212  0.17593919  0.95296967    -0.20020
C2157       C  0.74471794  0.48407403  0.05357249    -0.21450
C2158       C  0.74496425  0.01374307  0.04613772    -0.09500
C2159       C  0.76953930  0.03067294  0.05321734     0.29360
C2160       C  0.79508229  0.01699868  0.06189412    -0.21450
C2161       C  0.79623953  0.48656442  0.06346670    -0.09510
C2162       C  0.77019044  0.47052795  0.06285299     0.29370
F2163       F  0.77030714  0.44112888  0.06594081    -0.20030
H2164       H  0.72554602  0.47089596  0.04973997     0.17730
H2165       H  0.81489710  0.02973836  0.06302739     0.17740
F2166       F  0.77021058  0.05977842  0.04803913    -0.20020
C2167       C  0.61507758  0.43936848  0.03577418    -0.21450
C2168       C  0.62212042  0.45100755  0.00688741    -0.09500
C2169       C  0.62221545  0.43240719  0.98101157     0.29360
C2170       C  0.61693763  0.40256916  0.98426125    -0.21450
C2171       C  0.61211767  0.39047074  0.01340777    -0.09510
C2172       C  0.61048954  0.40931536  0.03913770     0.29370
F2173       F  0.60550684  0.39856018  0.06767758    -0.20030
H2174       H  0.61472553  0.45327888  0.05597716     0.17730
H2175       H  0.61854765  0.38863871  0.96410993     0.17740
F2176       F  0.62818763  0.44298827  0.95257084    -0.20020
C2177       C  0.65130763  0.18821702  0.99059678    -0.21450
C2178       C  0.62505030  0.20253026  0.98518289    -0.09500
C2179       C  0.59897838  0.18624572  0.98610017     0.29360
C2180       C  0.59963292  0.15604196  0.99229888    -0.21450
C2181       C  0.62611384  0.14224275  0.99902282    -0.09510
C2182       C  0.65187462  0.15894609  0.99808387     0.29370
F2183       F  0.67796925  0.14726782  0.00526061    -0.20030
H2184       H  0.67166473  0.20013328  0.99063363     0.17730
H2185       H  0.57948726  0.14382052  0.99312341     0.17740
F2186       F  0.57309189  0.19943721  0.98113088    -0.20020
C2187       C  0.60509720  0.24279004  0.10068712    -0.21450
C2188       C  0.59045103  0.26715925  0.08905008    -0.09500
C2189       C  0.56664688  0.27863379  0.10567039     0.29360
C2190       C  0.56030049  0.26837729  0.13528488    -0.21450
C2191       C  0.57745107  0.24646476  0.14849616    -0.09510
C2192       C  0.59856658  0.23232838  0.13010639     0.29370
F2193       F  0.61586018  0.21151637  0.14214877    -0.20030
H2194       H  0.62354164  0.23361274  0.08811164     0.17730
H2195       H  0.54406257  0.27974506  0.14919132     0.17740
F2196       F  0.55215313  0.30216899  0.09513583    -0.20020
C2197       C  0.75035622  0.20319597  0.04566641    -0.21450
C2198       C  0.77600770  0.21948703  0.04210982    -0.09500
C2199       C  0.77595312  0.24919100  0.05021468     0.29360
C2200       C  0.74968245  0.26319712  0.05694718    -0.21450
C2201       C  0.72345539  0.24781611  0.05462846    -0.09510
C2202       C  0.72405140  0.21733648  0.05182301     0.29370
F2203       F  0.69889165  0.20189343  0.05073118    -0.20030
H2204       H  0.75007356  0.18011626  0.04031446     0.17730
H2205       H  0.74963230  0.28669573  0.05946271     0.17640
F2206       F  0.80078111  0.26520029  0.04870725    -0.20020
C2207       C  0.73208878  0.38338981  0.00227117    -0.21450
C2208       C  0.73434852  0.35291613  0.00238302    -0.09500
C2209       C  0.76217803  0.34003254  0.00150773     0.29360
C2210       C  0.78711008  0.35737644  0.00236294    -0.21450
C2211       C  0.78489869  0.38785473  0.00329881    -0.09510
C2212       C  0.75709660  0.40077543  0.00219737     0.29370
F2213       F  0.75391924  0.43015701  0.00253772    -0.20030
H2214       H  0.71090349  0.39376303  0.00263343     0.17730
H2215       H  0.80822230  0.34689669  0.00287434     0.17740
F2216       F  0.76536544  0.31064441  0.00152041    -0.20020
C2217       C  0.95617259  0.22583574  0.87854336    -0.21450
C2218       C  0.93865093  0.23463541  0.85422451    -0.09500
C2219       C  0.90831686  0.23314632  0.85784162     0.29360
C2220       C  0.89572924  0.22234966  0.88481311    -0.21450
C2221       C  0.91308198  0.21274886  0.90900579    -0.09510
C2222       C  0.94359765  0.21541667  0.90591364     0.29370
F2223       F  0.96137049  0.20701934  0.92874986    -0.20030
H2224       H  0.97964627  0.22566471  0.87570562     0.17730
H2225       H  0.87221600  0.22107214  0.88644221     0.17740
F2226       F  0.89087404  0.23920357  0.83398979    -0.20020
C2227       C  0.52454242  0.14194874  0.69698026    -0.21450
C2228       C  0.99418241  0.13986783  0.70104728    -0.09500
C2229       C  0.98116638  0.11213136  0.70024208     0.29360
C2230       C  0.99857188  0.08714925  0.70025481    -0.21450
C2231       C  0.52909235  0.08940270  0.70092604    -0.09510
C2232       C  0.54194060  0.11694909  0.69675513     0.29370
F2233       F  0.57130153  0.12020953  0.69684318    -0.20030
H2234       H  0.53506768  0.16306489  0.69712066     0.17730
H2235       H  0.98811606  0.06616381  0.70304701     0.17740
F2236       F  0.95191856  0.10901144  0.70382790    -0.20020
C2237       C  0.88228491  0.13224944  0.80477604    -0.21450
C2238       C  0.91178389  0.13195419  0.79588479    -0.09500
C2239       C  0.92802230  0.10620717  0.79887947     0.29360
C2240       C  0.91364791  0.08017892  0.80506722    -0.21450
C2241       C  0.88322806  0.07982521  0.80831398    -0.09510
C2242       C  0.86802116  0.10626339  0.81144937     0.29370
F2243       F  0.83865187  0.10668542  0.81554403    -0.20030
H2244       H  0.86966938  0.15213973  0.80366996     0.17730
H2245       H  0.92570474  0.05993817  0.80309527     0.17740
F2246       F  0.95685757  0.10531645  0.79153980    -0.20020
C2247       C  0.68035709  0.19253372  0.64790777    -0.21450
C2248       C  0.69083348  0.22070492  0.65459903    -0.09500
C2249       C  0.69604185  0.23996749  0.63014898     0.29360
C2250       C  0.68959411  0.23123869  0.59986128    -0.21450
C2251       C  0.67797089  0.20337970  0.59401697    -0.09510
C2252       C  0.67386130  0.18409361  0.61829884     0.29370
F2253       F  0.66109784  0.15774984  0.61370977    -0.20030
H2254       H  0.67547161  0.17711736  0.66597323     0.17730
H2255       H  0.69210052  0.24666351  0.58137846     0.17740
F2256       F  0.70664376  0.26706417  0.63549765    -0.20020
C2257       C  0.54817257  0.24825862  0.71818117    -0.21450
C2258       C  0.53573564  0.26313884  0.74348413    -0.09500
C2259       C  0.55408567  0.27807086  0.76365338     0.29360
C2260       C  0.58442549  0.27671369  0.75943196    -0.21450
C2261       C  0.59694906  0.25962662  0.73563771    -0.09510
C2262       C  0.57844129  0.24630056  0.71432271     0.29370
F2263       F  0.58954007  0.22994012  0.69080132    -0.20030
H2264       H  0.53443117  0.23586307  0.70290634     0.17730
H2265       H  0.59812526  0.28699951  0.77634379     0.17740
F2266       F  0.54280620  0.29160088  0.78900332    -0.20020
C2267       C  0.80267998  0.26806839  0.78660412    -0.21450
C2268       C  0.78442630  0.26200004  0.76179110    -0.09500
C2269       C  0.79706492  0.25281734  0.73372735     0.29360
C2270       C  0.82701981  0.24785745  0.73130346    -0.21450
C2271       C  0.84522034  0.25257143  0.75648053    -0.09510
C2272       C  0.83289433  0.26402281  0.78383203     0.29370
F2273       F  0.84966986  0.26998494  0.80834489    -0.20030
H2274       H  0.79343017  0.27526367  0.80842460     0.17730
H2275       H  0.83594536  0.23962543  0.70973469     0.17740
F2276       F  0.78025593  0.24648039  0.70925245    -0.20020
C2277       C  0.67712273  0.31471539  0.85548732    -0.21450
C2278       C  0.66326369  0.29245728  0.83923840    -0.09500
C2279       C  0.63721615  0.28059299  0.85130916     0.29360
C2280       C  0.62749748  0.28800943  0.88097503    -0.21450
C2281       C  0.64391853  0.30696063  0.89912919    -0.09510
C2282       C  0.66751705  0.32200878  0.88529784     0.29370
F2283       F  0.68336854  0.34124301  0.90190405    -0.20030
H2284       H  0.69720278  0.32404800  0.84662880     0.17730
H2285       H  0.60934888  0.27612021  0.89097129     0.17740
F2286       F  0.62317661  0.25916188  0.83582486    -0.20020
C2287       C  0.73229399  0.11472226  0.75496181    -0.21450
C2288       C  0.74512706  0.14238304  0.75792706    -0.09500
C2289       C  0.77573317  0.14448722  0.75751239     0.29360
C2290       C  0.79291871  0.11932481  0.75533753    -0.21450
C2291       C  0.77999504  0.09161362  0.75411012    -0.09510
C2292       C  0.74946589  0.08957696  0.75332286     0.29370
F2293       F  0.73618364  0.06324788  0.75128517    -0.20030
H2294       H  0.70882637  0.11242203  0.75501003     0.17730
H2295       H  0.81638236  0.12146366  0.75598437     0.17740
F2296       F  0.78909504  0.17078522  0.75951044    -0.20020
C2297       C  0.65638858  0.12899544  0.81198657    -0.21450
C2298       C  0.64036310  0.15497901  0.81259846    -0.09500
C2299       C  0.60998632  0.15379871  0.80947091     0.29360
C2300       C  0.59686355  0.12796494  0.80001893    -0.21450
C2301       C  0.61395808  0.10322326  0.79370512    -0.09510
C2302       C  0.64338302  0.10324726  0.80206559     0.29370
F2303       F  0.66016004  0.07916302  0.79815564    -0.20030
H2304       H  0.67980610  0.12937440  0.81453956     0.17730
H2305       H  0.57392719  0.12822376  0.79470121     0.17740
F2306       F  0.59385390  0.17857522  0.81075550    -0.20020
C2307       C  0.81128177  0.02409547  0.63649640    -0.21450
C2308       C  0.82694608  0.50077967  0.64913521    -0.09500
C2309       C  0.84598551  0.98475096  0.62991288     0.29360
C2310       C  0.85201788  0.99433107  0.60003020    -0.21450
C2311       C  0.83889402  0.01968150  0.58871353    -0.09510
C2312       C  0.81710352  0.03345782  0.60643626     0.29370
F2313       F  0.80426383  0.05809559  0.59627598    -0.20030
H2314       H  0.79659389  0.53687698  0.65094080     0.17730
H2315       H  0.86905097  0.98352176  0.58669170     0.17740
F2316       F  0.86186385  0.96249690  0.64127360    -0.20020
C2317       C  0.51086273  0.08862526  0.49731310    -0.21450
C2318       C  0.98333610  0.10198273  0.49898810    -0.09500
C2319       C  0.98159703  0.13255917  0.49899184     0.29360
C2320       C  0.50702212  0.14931592  0.49854405    -0.21450
C2321       C  0.53452443  0.13589735  0.49869638    -0.09510
C2322       C  0.53624608  0.10534792  0.49747337     0.29370
F2323       F  0.56243604  0.09162862  0.49695075    -0.20030
H2324       H  0.51278834  0.06510909  0.49725841     0.17730
H2325       H  0.50517162  0.17282886  0.49952965     0.17740
F2326       F  0.95539498  0.14624160  0.49986248    -0.20020
C2327       C  0.52433954  0.99737907  0.55423836    -0.21450
C2328       C  0.52383225  0.46772973  0.54618245    -0.09500
C2329       C  0.49760948  0.45212532  0.54886949     0.29360
C2330       C  0.97162987  0.46720804  0.55383319    -0.21450
C2331       C  0.97180412  0.99770376  0.55619441    -0.09510
C2332       C  0.49838095  0.01237581  0.55959396     0.29370
F2333       F  0.99926160  0.04182222  0.56255554    -0.20030
H2334       H  0.54453721  0.00955006  0.55322063     0.17730
H2335       H  0.95124365  0.45557107  0.55161478     0.17740
F2336       F  0.49645101  0.42322427  0.54218479    -0.20020
C2337       C  0.90436128  0.25669298  0.60434457    -0.21450
C2338       C  0.89291792  0.28497263  0.60357840    -0.09500
C2339       C  0.89225710  0.30178113  0.63061212     0.29360
C2340       C  0.90329274  0.29045351  0.65788133    -0.21450
C2341       C  0.91570145  0.26237605  0.65844901    -0.09510
C2342       C  0.91574453  0.24547734  0.63126858     0.29370
F2343       F  0.92780362  0.21848497  0.63021300    -0.20030
H2344       H  0.90635842  0.24394032  0.58334772     0.17730
H2345       H  0.90238828  0.30380686  0.67848022     0.17740
F2346       F  0.88244195  0.32964286  0.63019586    -0.20020
C2347       C  0.84713746  0.40496996  0.49162417    -0.21450
C2348       C  0.87235686  0.39139503  0.50259943    -0.09500
C2349       C  0.89789569  0.40824399  0.50540818     0.29360
C2350       C  0.89834520  0.43734380  0.49718298    -0.21450
C2351       C  0.87323297  0.45130989  0.48723745    -0.09510
C2352       C  0.84735043  0.43501118  0.48467223     0.29370
F2353       F  0.82256623  0.44796935  0.47526199    -0.20030
H2354       H  0.82720692  0.39262687  0.48934426     0.17730
H2355       H  0.91843258  0.44937967  0.49984818     0.17740
F2356       F  0.92283169  0.39677259  0.51639032    -0.20020
C2357       C  0.86261015  0.18869408  0.53267885    -0.21450
C2358       C  0.87051078  0.20051406  0.50410658    -0.09500
C2359       C  0.87195951  0.18191073  0.47820868     0.29360
C2360       C  0.86708795  0.15197156  0.48122448    -0.21450
C2361       C  0.86126743  0.13981343  0.51014180    -0.09510
C2362       C  0.85836790  0.15859271  0.53580499     0.29370
F2363       F  0.85239464  0.14772988  0.56410628    -0.20030
H2364       H  0.86118916  0.20255618  0.55289211     0.17730
H2365       H  0.86970595  0.13805090  0.46116396     0.17740
F2366       F  0.87873591  0.19257723  0.44998980    -0.20020
C2367       C  0.82640529  0.27721057  0.40556790    -0.21450
C2368       C  0.85594590  0.27158811  0.41060043    -0.09500
C2369       C  0.87146335  0.25390389  0.38924924     0.29360
C2370       C  0.85814793  0.24376717  0.36261794    -0.21450
C2371       C  0.82934131  0.25136138  0.35645136    -0.09510
C2372       C  0.81328332  0.26751946  0.37858698     0.29370
F2373       F  0.78532765  0.27527806  0.37326355    -0.20030
H2374       H  0.81375770  0.29004425  0.42196745     0.17730
H2375       H  0.87109554  0.23187429  0.34567913     0.17740
F2376       F  0.89966586  0.24657222  0.39387640    -0.20020
C2377       C  0.51710880  0.28217897  0.54466209    -0.21450
C2378       C  0.99225406  0.26515360  0.53963807    -0.09500
C2379       C  0.99213019  0.23571397  0.54812482     0.29360
C2380       C  0.51803451  0.22250347  0.55638700    -0.21450
C2381       C  0.54404770  0.23847377  0.55520895    -0.09510
C2382       C  0.54306219  0.26885254  0.55244846     0.29370
F2383       F  0.56791297  0.28485046  0.55262234    -0.20030
H2384       H  0.51733964  0.30519016  0.53937660     0.17730
H2385       H  0.51835222  0.19905807  0.55902556     0.17740
F2386       F  0.96777239  0.21917092  0.54567398    -0.20020
C2387       C  0.50647396  0.33906853  0.44780453    -0.21450
C2388       C  0.97938567  0.35282605  0.45238991    -0.09500
C2389       C  0.97836842  0.38349630  0.45259748     0.29360
C2390       C  0.50417921  0.39972420  0.45250915    -0.21450
C2391       C  0.53134216  0.38564695  0.45260708    -0.09510
C2392       C  0.53226788  0.35524860  0.44817980     0.29370
F2393       F  0.55810220  0.34087635  0.44724073    -0.20030
H2394       H  0.50799736  0.31552869  0.44735538     0.17730
H2395       H  0.50278957  0.42310391  0.45572855     0.17740
F2396       F  0.95258487  0.39772527  0.45578236    -0.20020
C2397       C  0.69842083  0.98190835  0.37842114    -0.21450
C2398       C  0.68103971  0.48469436  0.35252483    -0.09500
C2399       C  0.65141679  0.47743485  0.35473675     0.29360
C2400       C  0.63954224  0.46691203  0.38217717    -0.21450
C2401       C  0.65695351  0.46326593  0.40809571    -0.09510
C2402       C  0.68650625  0.47168588  0.40613819     0.29370
F2403       F  0.70411349  0.96959234  0.43069316    -0.20030
H2404       H  0.72156625  0.98626052  0.37671413     0.17730
H2405       H  0.61671754  0.46102265  0.38283465     0.17740
F2406       F  0.63451981  0.47806795  0.32950621    -0.20020
C2407       C  0.66140494  0.04594671  0.15645908    -0.21450
C2408       C  0.66601654  0.01570267  0.15812401    -0.09500
C2409       C  0.65685182  0.99796569  0.13346399     0.29360
C2410       C  0.64479964  0.01041933  0.10747145    -0.21450
C2411       C  0.64201225  0.04066732  0.10512297    -0.09510
C2412       C  0.64985131  0.05835225  0.13007576     0.29370
F2413       F  0.64822552  0.08777680  0.12797665    -0.20030
H2414       H  0.66752465  0.06015594  0.17522011     0.17730
H2415       H  0.64003239  0.49653506  0.08795973     0.17740
F2416       F  0.66015063  0.46859584  0.13388925    -0.20020
C2417       C  0.73343823  0.36619297  0.19692266    -0.21450
C2418       C  0.74691527  0.39337539  0.20095768    -0.09500
C2419       C  0.77755407  0.39481443  0.20004435     0.29360
C2420       C  0.79407667  0.36923327  0.19976463    -0.21450
C2421       C  0.78029133  0.34195931  0.20084517    -0.09510
C2422       C  0.74993890  0.34060858  0.19709576     0.29370
F2423       F  0.73591857  0.31458186  0.19692334    -0.20030
H2424       H  0.70992441  0.36442842  0.19723728     0.17730
H2425       H  0.81742139  0.37091481  0.20236491     0.17740
F2426       F  0.79146302  0.42077245  0.20274332    -0.20020
C2427       C  0.65725098  0.33307324  0.30544075    -0.21450
C2428       C  0.62673346  0.33313585  0.30615087    -0.09500
C2429       C  0.61173183  0.35977938  0.30597614     0.29360
C2430       C  0.62675857  0.38505950  0.29823627    -0.21450
C2431       C  0.65675616  0.38389434  0.29165101    -0.09510
C2432       C  0.67236028  0.35840804  0.29816329     0.29370
F2433       F  0.70161069  0.35681725  0.29347707    -0.20030
H2434       H  0.66911663  0.31269886  0.30618995     0.17730
H2435       H  0.61455004  0.40489764  0.29467113     0.17740
F2436       F  0.58220958  0.36067921  0.30789137    -0.20020
C2437       C  0.92012555  0.49076790  0.09911485    -0.21450
C2438       C  0.93268308  0.46499095  0.08724001    -0.09500
C2439       C  0.95512820  0.45166354  0.10328167     0.29360
C2440       C  0.96192760  0.46174501  0.13273513    -0.21450
C2441       C  0.94647245  0.48521042  0.14635158    -0.09510
C2442       C  0.92709245  0.50102176  0.12838455     0.29370
F2443       F  0.91153492  0.02349655  0.14075750    -0.20030
H2444       H  0.90266367  0.50126886  0.08700363     0.17730
H2445       H  0.97691621  0.44919196  0.14625426     0.17740
F2446       F  0.96752419  0.42670541  0.09244821    -0.20020
C2447       C  0.83550423  0.51082594  0.27054824    -0.21450
C2448       C  0.84604916  0.01236575  0.24026296    -0.09500
C2449       C  0.82627228  0.01652894  0.21644999     0.29360
C2450       C  0.79615258  0.01742924  0.22297289    -0.21450
C2451       C  0.78555785  0.01340826  0.25315738    -0.09510
C2452       C  0.80566312  0.51093610  0.27700724     0.29370
F2453       F  0.79638095  0.50640745  0.30636366    -0.20030
H2454       H  0.85046172  0.50742827  0.28914459     0.17730
H2455       H  0.78109600  0.01879607  0.20416082     0.17740
F2456       F  0.83598349  0.01851791  0.18694968    -0.20020
C2457       C  0.54741977  0.50776296  0.22886891    -0.21450
C2458       C  0.53463828  0.01378290  0.25771195    -0.09500
C2459       C  0.55272717  0.01693454  0.28330164     0.29360
C2460       C  0.58281648  0.01251984  0.28025339    -0.21450
C2461       C  0.59523946  0.00416186  0.25186168    -0.09510
C2462       C  0.57736215  0.50271262  0.22594120     0.29370
F2463       F  0.58871714  0.49573707  0.19783621    -0.20030
H2464       H  0.53397128  0.50506559  0.20887845     0.17730
H2465       H  0.59615966  0.01416351  0.30042183     0.17740
F2466       F  0.54117628  0.02325837  0.31147233    -0.20020
C2467       C  0.87939063  0.02972735  0.38073102    -0.21450
C2468       C  0.89342565  0.05161064  0.39740587    -0.09500
C2469       C  0.91544362  0.06811744  0.38263711     0.29360
C2470       C  0.92549843  0.06043591  0.35305807    -0.21450
C2471       C  0.91406513  0.03592606  0.33824913    -0.09510
C2472       C  0.88990491  0.02157393  0.35162555     0.29370
F2473       F  0.87838824  0.49767266  0.33790016    -0.20030
H2474       H  0.86272663  0.51648379  0.39165811     0.17730
H2475       H  0.94408765  0.07172426  0.34319005     0.17740
F2476       F  0.92925820  0.08969932  0.39807545    -0.20020
C2477       C  0.52344810  0.39422772  0.24263533    -0.21450
C2478       C  0.99294068  0.39227975  0.24349872    -0.09500
C2479       C  0.97988923  0.36452477  0.24255676     0.29360
C2480       C  0.99709669  0.33938525  0.24319216    -0.21450
C2481       C  0.52758764  0.34136288  0.24389230    -0.09510
C2482       C  0.54066326  0.36909495  0.24237585     0.29370
F2483       F  0.57004867  0.37210295  0.24267778    -0.20030
H2484       H  0.53402235  0.41531273  0.24303816     0.17730
H2485       H  0.98651196  0.31831681  0.24402673     0.17740
F2486       F  0.95048708  0.36158906  0.24308924    -0.20020
C2487       C  0.86086223  0.40335857  0.30381558    -0.21450
C2488       C  0.89133352  0.40351943  0.30531810    -0.09500
C2489       C  0.90639524  0.37698060  0.30713353     0.29360
C2490       C  0.89180600  0.35107961  0.30099615    -0.21450
C2491       C  0.86214688  0.35153630  0.29385088    -0.09510
C2492       C  0.84618407  0.37742315  0.29809180     0.29370
F2493       F  0.81723448  0.37850383  0.29250685    -0.20030
H2494       H  0.84890462  0.42367266  0.30292873     0.17730
H2495       H  0.90425638  0.33109370  0.29895196     0.17740
F2496       F  0.93581516  0.37633478  0.30954607    -0.20020
Fe2497     Fe  0.96106107  0.96781781  0.29036620     1.65780
Fe2498     Fe  0.91786044  0.95229022  0.23245591     1.73250
Fe2499     Fe  0.94079581  0.52085703  0.24256502     1.54410
O2500       O  0.93883951  0.53530548  0.28894682    -0.81820
O2501       O  0.93953301  0.96166847  0.19278471    -0.80130
O2502       O  0.93527159  0.99449279  0.31635263    -0.84330
O2503       O  0.99275720  0.99976290  0.28590782    -0.79180
O2504       O  0.89600900  0.52326928  0.24480671    -0.80960
O2505       O  0.94886896  0.91931047  0.23929773    -0.83700
C2506       C  0.00267236  0.51150299  0.26163834     0.97060
C2507       C  0.93023252  0.52138219  0.31284601     1.04500
O2508       O  0.94022497  0.98041402  0.25458010    -1.12690
O2509       O  0.89530991  0.94246414  0.27171519    -0.75120
O2510       O  0.93304056  0.93363990  0.30081818    -0.78600
O2511       O  0.98593327  0.51948768  0.24038172    -0.79290
C2512       C  0.90696158  0.92882016  0.29328764     0.95970
O2513       O  0.98595360  0.93987209  0.26379484    -0.77250
O2514       O  0.88394342  0.98114191  0.22285602    -0.82440
C2515       C  0.94305652  0.48613898  0.18012950     0.98590
C2516       C  0.87713016  0.50572454  0.23464227     1.04510
O2517       O  0.94104683  0.51025860  0.19504371    -0.78090
C2518       C  0.97511556  0.91884894  0.24858778     1.02810
Fe2519     Fe  0.72265726  0.94804878  0.27271729     1.65780
Fe2520     Fe  0.66920055  0.94893530  0.22234908     1.73250
Fe2521     Fe  0.68922689  0.51121797  0.25702013     1.54410
O2522       O  0.69485855  0.50713329  0.30490978    -0.81820
O2523       O  0.68176231  0.97523372  0.18694554    -0.80130
O2524       O  0.70356146  0.95985214  0.31278821    -0.84330
O2525       O  0.75152208  0.98200253  0.27534754    -0.79180
O2526       O  0.64495974  0.50793422  0.26619013    -0.80960
O2527       O  0.70208598  0.91874184  0.21020337    -0.83700
C2528       C  0.75504371  0.50428546  0.25885752     0.97060
C2529       C  0.69461493  0.98447181  0.32189044     1.04500
O2530       O  0.69364317  0.96974913  0.25051379    -1.12690
O2531       O  0.65477591  0.92343468  0.25777845    -0.75120
O2532       O  0.69794087  0.91055435  0.27494390    -0.78600
O2533       O  0.73364327  0.51730921  0.24686798    -0.79290
C2534       C  0.67053490  0.90760891  0.27438759     0.95970
O2535       O  0.74209050  0.93506729  0.23237708    -0.77250
O2536       O  0.63317641  0.97550290  0.23029368    -0.82440
C2537       C  0.67721852  0.50253691  0.18664136     0.98590
C2538       C  0.62624775  0.49547235  0.24944332     1.04510
O2539       O  0.67963414  0.51845175  0.21072455    -0.78090
C2540       C  0.72957440  0.91781174  0.21404294     1.02810
Fe2541     Fe  0.92679571  0.82758062  0.52428183     1.65780
Fe2542     Fe  0.92500583  0.77410518  0.47293491     1.73250
Fe2543     Fe  0.86326540  0.79538268  0.50963853     1.54410
O2544       O  0.86921934  0.80125114  0.55778133    -0.81820
O2545       O  0.89764789  0.78502168  0.43835534    -0.80130
O2546       O  0.91733481  0.80656558  0.56337517    -0.84330
O2547       O  0.89137193  0.85369385  0.53210080    -0.79180
O2548       O  0.86585554  0.75087991  0.51783006    -0.80960
O2549       O  0.95392516  0.80791771  0.46007544    -0.83700
C2550       C  0.87346400  0.86025569  0.51184545     0.97060
C2551       C  0.89256688  0.79891627  0.57344700     1.04500
O2552       O  0.90468131  0.79867397  0.50195651    -1.12690
O2553       O  0.95176057  0.76089282  0.50736421    -0.75120
O2554       O  0.96524228  0.80486462  0.52210745    -0.78600
O2555       O  0.85861332  0.84017911  0.49933683    -0.79290
C2556       C  0.96810378  0.77751427  0.52268456     0.95970
O2557       O  0.93727509  0.84783264  0.48383979    -0.77250
O2558       O  0.89911654  0.73799267  0.48225556    -0.82440
C2559       C  0.87012365  0.78196355  0.43896457     0.98590
C2560       C  0.87886719  0.73162958  0.50139288     1.04510
O2561       O  0.85471062  0.78553056  0.46348624    -0.78090
C2562       C  0.95463173  0.83549743  0.46478810     1.02810
Fe2563     Fe  0.90727099  0.56726659  0.54274388     1.65780
Fe2564     Fe  0.92580733  0.52675478  0.48240300     1.73250
Fe2565     Fe  0.85613879  0.54526394  0.49315896     1.54420
O2566       O  0.84036868  0.54289856  0.53918878    -0.81820
O2567       O  0.91622017  0.55027096  0.44458383    -0.80130
O2568       O  0.88049126  0.54059613  0.56725733    -0.84330
O2569       O  0.87477136  0.59834534  0.53829742    -0.79180
O2570       O  0.85600388  0.00008896  0.49396410    -0.80960
O2571       O  0.95765814  0.55777990  0.49214588    -0.83700
C2572       C  0.86347914  0.60779690  0.51392229     0.97060
C2573       C  0.85379308  0.53513946  0.56333139     1.04500
O2574       O  0.89629722  0.54667170  0.50584374    -1.12690
O2575       O  0.93579850  0.50280818  0.51988690    -0.75120
O2576       O  0.94154944  0.53937079  0.55264842    -0.78600
O2577       O  0.85595045  0.59059200  0.49239507    -0.79290
C2578       C  0.94745208  0.51373057  0.54334845     0.95970
O2579       O  0.93541662  0.59352651  0.51826393    -0.77250
O2580       O  0.89831086  0.99291551  0.46960801    -0.82440
C2581       C  0.89199986  0.55025676  0.43127720     0.98590
C2582       C  0.87528539  0.98317684  0.48256328     1.04510
O2583       O  0.86791779  0.54562221  0.44576650    -0.78090
C2584       C  0.95708685  0.58369978  0.50285437     1.02810
Fe2585     Fe  0.71036023  0.72039701  0.79932598     1.65780
Fe2586     Fe  0.67019914  0.69998222  0.74166837     1.73250
Fe2587     Fe  0.69082536  0.76893146  0.74566497     1.54410
O2588       O  0.68876154  0.78745045  0.79051658    -0.81820
O2589       O  0.69634022  0.70656372  0.70491303    -0.80130
O2590       O  0.68388258  0.74918139  0.82168375    -0.84330
O2591       O  0.74224382  0.75204830  0.79192035    -0.79180
O2592       O  0.64605659  0.77105166  0.74725968    -0.80960
O2593       O  0.70005092  0.66751778  0.75373913    -0.83700
C2594       C  0.75242318  0.76090121  0.76628384     0.97060
C2595       C  0.67942711  0.77572011  0.81547097     1.04500
O2596       O  0.69049648  0.72999904  0.76219274    -1.12690
O2597       O  0.64503945  0.69404236  0.77976516    -0.75120
O2598       O  0.68134063  0.68678519  0.81135881    -0.78600
O2599       O  0.73584895  0.76714251  0.74418950    -0.79290
C2600       C  0.65569020  0.68117957  0.80239012     0.95970
O2601       O  0.73645011  0.69065005  0.77637005    -0.77250
O2602       O  0.63725827  0.72780628  0.72627400    -0.82440
C2603       C  0.69373345  0.72815848  0.68763721     0.98590
C2604       C  0.62856134  0.75266635  0.73600193     1.04510
O2605       O  0.69018383  0.75389203  0.69881742    -0.78090
C2606       C  0.72639157  0.66845568  0.76255704     1.02810
Fe2607     Fe  0.97599815  0.69774777  0.77181888     1.65780
Fe2608     Fe  0.91852848  0.69683409  0.72614950     1.73250
Fe2609     Fe  0.93970682  0.76037903  0.75763821     1.54420
O2610       O  0.94703127  0.75700652  0.80527774    -0.81820
O2611       O  0.92861638  0.72221038  0.68909906    -0.80130
O2612       O  0.96134095  0.71111937  0.81347368    -0.84330
O2613       O  0.00535660  0.73113989  0.76932630    -0.79180
O2614       O  0.89566832  0.75725801  0.76886195    -0.80960
O2615       O  0.95022903  0.66607964  0.71254244    -0.83700
C2616       C  0.00636852  0.75413562  0.75369525     0.97060
C2617       C  0.95067482  0.73501352  0.82275176     1.04500
O2618       O  0.94472179  0.71870688  0.75182135    -1.12690
O2619       O  0.90681587  0.67207933  0.76323969    -0.75120
O2620       O  0.95123810  0.66064790  0.77842220    -0.78600
O2621       O  0.98356656  0.76750403  0.74544447    -0.79290
C2622       C  0.92391082  0.65667678  0.77886237     0.95970
O2623       O  0.99178601  0.68301002  0.73038501    -0.77250
O2624       O  0.88275430  0.72321310  0.73535439    -0.82440
C2625       C  0.92555716  0.74972516  0.68783148     0.98590
C2626       C  0.87634971  0.74394894  0.75370636     1.04510
O2627       O  0.92864936  0.76633227  0.71135426    -0.78090
C2628       C  0.97787361  0.66497488  0.71419855     1.02810
Fe2629     Fe  0.65812820  0.81730026  0.04460459     1.65780
Fe2630     Fe  0.67646769  0.77850952  0.98302395     1.73250
Fe2631     Fe  0.60681711  0.79618251  0.99465782     1.54420
O2632       O  0.59126974  0.79230278  0.04058852    -0.81820
O2633       O  0.66676173  0.80333356  0.94623899    -0.80130
O2634       O  0.63152526  0.78985660  0.06841021    -0.84330
O2635       O  0.62557739  0.84855433  0.04109744    -0.79180
O2636       O  0.60711326  0.75092834  0.99415784    -0.80960
O2637       O  0.70842547  0.80906213  0.99391624    -0.83700
C2638       C  0.61406201  0.85837695  0.01698150     0.97060
C2639       C  0.60493719  0.78394533  0.06433885     1.04500
O2640       O  0.64701448  0.79767104  0.00718215    -1.12690
O2641       O  0.68634405  0.75334598  0.01967389    -0.75120
O2642       O  0.69254760  0.78909665  0.05335193    -0.78600
O2643       O  0.60621225  0.84148111  0.99531562    -0.79290
C2644       C  0.69840628  0.76371416  0.04317793     0.95970
O2645       O  0.68621252  0.84425405  0.02085681    -0.77250
O2646       O  0.64895844  0.74530196  0.96871290    -0.82440
C2647       C  0.64252701  0.80375684  0.93293427     0.98590
C2648       C  0.62645538  0.73466231  0.98184438     1.04510
O2649       O  0.61849915  0.79824846  0.94722034    -0.78090
C2650       C  0.70798758  0.83465908  0.00544173     1.02810
Fe2651     Fe  0.68094529  0.57772155  0.02521540     1.65780
Fe2652     Fe  0.68021997  0.52200559  0.97648489     1.73250
Fe2653     Fe  0.61729560  0.54611288  0.00882811     1.54420
O2654       O  0.62093480  0.55331449  0.05687900    -0.81820
O2655       O  0.65504541  0.53274716  0.94000205    -0.80130
O2656       O  0.66857343  0.55980628  0.06511906    -0.84330
O2657       O  0.64676463  0.60609602  0.02912992    -0.79180
O2658       O  0.61823779  0.00184186  0.01870338    -0.80960
O2659       O  0.71087069  0.55416439  0.96355755    -0.83700
C2660       C  0.62831525  0.61138036  0.00894171     0.97060
C2661       C  0.64331361  0.55263674  0.07413430     1.04500
O2662       O  0.65911582  0.54826749  0.00335533    -1.12690
O2663       O  0.70504485  0.50925652  0.01285589    -0.75120
O2664       O  0.71850174  0.55343673  0.02705010    -0.78600
O2665       O  0.61376619  0.59066602  0.99714145    -0.79290
C2666       C  0.72118956  0.52606315  0.02825914     0.95970
O2667       O  0.69411015  0.59534348  0.98433334    -0.77250
O2668       O  0.65283183  0.98697965  0.98556357    -0.82440
C2669       C  0.62742845  0.53149904  0.93877217     0.98590
C2670       C  0.63148591  0.98176695  0.00371524     1.04510
O2671       O  0.61090163  0.53540055  0.96243644    -0.78090
C2672       C  0.71178495  0.58188276  0.96660512     1.02810
Fe2673     Fe  0.60880136  0.66921444  0.54376349     1.65780
Fe2674     Fe  0.59467497  0.71011553  0.48400429     1.73250
Fe2675     Fe  0.66267125  0.68706446  0.49481829     1.54420
O2676       O  0.67629095  0.68840066  0.54110004    -0.81820
O2677       O  0.60476343  0.68687176  0.44530214    -0.80130
O2678       O  0.63516037  0.69543673  0.56842939    -0.84330
O2679       O  0.64103953  0.63809565  0.54030096    -0.79180
O2680       O  0.66567108  0.73202155  0.49604799    -0.80960
O2681       O  0.56134202  0.67976218  0.49257174    -0.83700
C2682       C  0.65061125  0.62604905  0.51593548     0.97060
C2683       C  0.66262861  0.69638431  0.56569489     1.04500
O2684       O  0.62212166  0.68867138  0.50708710    -1.12690
O2685       O  0.58418461  0.73402859  0.52226375    -0.75120
O2686       O  0.57452606  0.69726650  0.55311077    -0.78600
O2687       O  0.65979153  0.64149587  0.49357537    -0.79290
C2688       C  0.56998575  0.72304966  0.54437140     0.95970
O2689       O  0.58153990  0.64348416  0.51851684    -0.77250
O2690       O  0.62434957  0.74306328  0.47281794    -0.82440
C2691       C  0.62956127  0.68595269  0.43231569     0.98590
C2692       C  0.64868664  0.75046188  0.48414300     1.04510
O2693       O  0.65320686  0.68796375  0.44732255    -0.78090
C2694       C  0.56085321  0.65380116  0.50293681     1.02810
Fe2695     Fe  0.58964088  0.90238388  0.52200823     1.65780
Fe2696     Fe  0.58964678  0.96022768  0.47578561     1.73250
Fe2697     Fe  0.65260955  0.93861487  0.50707972     1.54420
O2698       O  0.64902332  0.93093620  0.55459217    -0.81820
O2699       O  0.61576130  0.95032891  0.43856407    -0.80130
O2700       O  0.60327262  0.91625098  0.56343147    -0.84330
O2701       O  0.62281312  0.87262747  0.51775181    -0.79180
O2702       O  0.64883251  0.98229125  0.51828270    -0.80960
O2703       O  0.55869689  0.92891565  0.46270240    -0.83700
C2704       C  0.64684182  0.87205885  0.50314457     0.97060
C2705       C  0.62702393  0.92682908  0.57246624     1.04500
O2706       O  0.61098078  0.93363888  0.50147547    -1.12690
O2707       O  0.56428954  0.97190958  0.51292196    -0.75120
O2708       O  0.55290367  0.92775822  0.52999868    -0.78600
O2709       O  0.66044303  0.89502950  0.49530975    -0.79290
C2710       C  0.54881466  0.95509979  0.52940625     0.95970
O2711       O  0.57429858  0.88708199  0.48119056    -0.77250
O2712       O  0.61582625  0.99605339  0.48466655    -0.82440
C2713       C  0.64333423  0.95332457  0.43740172     0.98590
C2714       C  0.63575175  0.50184631  0.50350255     1.04510
O2715       O  0.65924112  0.94989717  0.46091634    -0.78090
C2716       C  0.55681490  0.90132770  0.46501923     1.02810
Fe2717     Fe  0.81376412  0.51532337  0.79541549     1.65780
Fe2718     Fe  0.85515462  0.53243518  0.73525174     1.73250
Fe2719     Fe  0.83250008  0.96351841  0.74409599     1.54420
O2720       O  0.83404928  0.94779864  0.78988475    -0.81820
O2721       O  0.83263461  0.52369799  0.69649434    -0.80130
O2722       O  0.83987637  0.98780904  0.81869765    -0.84330
O2723       O  0.78243034  0.98337753  0.79103084    -0.79180
O2724       O  0.87744876  0.96143752  0.74458172    -0.80960
O2725       O  0.82420567  0.56524271  0.74549750    -0.83700
C2726       C  0.77119347  0.97394129  0.76652596     0.97060
C2727       C  0.84264220  0.96062093  0.81438805     1.04500
O2728       O  0.83352366  0.50372963  0.75773591    -1.12690
O2729       O  0.87865745  0.54168002  0.77334365    -0.75120
O2730       O  0.84184909  0.54927964  0.80566445    -0.78600
O2731       O  0.78710537  0.96533725  0.74399831    -0.79290
C2732       C  0.86757055  0.55461030  0.79638609     0.95970
O2733       O  0.78814887  0.54380764  0.77190585    -0.77250
O2734       O  0.88878341  0.50366246  0.72255017    -0.82440
C2735       C  0.83000990  0.99940464  0.68289737     0.98590
C2736       C  0.89608430  0.97945432  0.73421952     1.04510
O2737       O  0.83251085  0.97509421  0.69690483    -0.78090
C2738       C  0.79826601  0.56520318  0.75674348     1.02810
Fe2739     Fe  0.55063608  0.53742198  0.77405609     1.65780
Fe2740     Fe  0.60678877  0.53550813  0.72467826     1.73250
Fe2741     Fe  0.58348797  0.97343632  0.75853763     1.54420
O2742       O  0.57670028  0.97894756  0.80655385    -0.81820
O2743       O  0.59819843  0.00784762  0.68869470    -0.80130
O2744       O  0.56880752  0.52664694  0.81405825    -0.84330
O2745       O  0.52172523  0.00358867  0.77775840    -0.79180
O2746       O  0.62765346  0.97520599  0.76721620    -0.80960
O2747       O  0.57374709  0.56428404  0.71068632    -0.83700
C2748       C  0.51781038  0.98172808  0.76059234     0.97060
C2749       C  0.57727677  0.00210366  0.82322417     1.04500
O2750       O  0.58049829  0.51505402  0.75205810    -1.12690
O2751       O  0.61847734  0.56272261  0.76005254    -0.75120
O2752       O  0.57435014  0.57556932  0.77574015    -0.78600
O2753       O  0.53922381  0.96817951  0.74831928    -0.79290
C2754       C  0.60167861  0.57886789  0.77600328     0.95970
O2755       O  0.53276059  0.54907462  0.73344433    -0.77250
O2756       O  0.64256312  0.01032396  0.73543273    -0.82440
C2757       C  0.59878144  0.98010849  0.68844832     0.98590
C2758       C  0.64766103  0.98944088  0.75350554     1.04510
O2759       O  0.59367134  0.96494580  0.71240778    -0.78090
C2760       C  0.54607930  0.56549601  0.71459950     1.02810
Fe2761     Fe  0.55852319  0.76764766  0.29201507     1.65780
Fe2762     Fe  0.60375599  0.78199237  0.23406294     1.73250
Fe2763     Fe  0.58165563  0.71336741  0.24523848     1.54410
O2764       O  0.58327777  0.70063598  0.29199570    -0.81820
O2765       O  0.58386689  0.77118626  0.19440508    -0.80130
O2766       O  0.58393092  0.74246323  0.31857739    -0.84330
O2767       O  0.52767153  0.73494600  0.28848642    -0.79180
O2768       O  0.62642261  0.71150849  0.24654174    -0.80960
O2769       O  0.57198839  0.81461118  0.24029804    -0.83700
C2770       C  0.51887673  0.72232659  0.26442576     0.97060
C2771       C  0.59054258  0.71576444  0.31556325     1.04500
O2772       O  0.58100946  0.75417683  0.25652787    -1.12690
O2773       O  0.62451900  0.79310184  0.27336232    -0.75120
O2774       O  0.58542692  0.80269625  0.30179920    -0.78600
O2775       O  0.53655920  0.71369486  0.24353449    -0.79290
C2776       C  0.61181526  0.80737273  0.29452738     0.95970
O2777       O  0.53411997  0.79423340  0.26471909    -0.77250
O2778       O  0.63846425  0.75358117  0.22483275    -0.82440
C2779       C  0.58046227  0.74635135  0.18221167     0.98590
C2780       C  0.64529946  0.72891928  0.23572167     1.04510
O2781       O  0.58205992  0.72262324  0.19745227    -0.78090
C2782       C  0.54535151  0.81500947  0.24935508     1.02810
Fe2783     Fe  0.79657842  0.78637084  0.27250732     1.65780
Fe2784     Fe  0.85462311  0.78472159  0.22529997     1.73250
Fe2785     Fe  0.83245966  0.72290558  0.25962008     1.54420
O2786       O  0.82437805  0.72807037  0.30725332    -0.81820
O2787       O  0.84449549  0.75796782  0.18937996    -0.80130
O2788       O  0.80994215  0.77420306  0.31432561    -0.84330
O2789       O  0.76672940  0.75328276  0.27092708    -0.79180
O2790       O  0.87620282  0.72655522  0.26975845    -0.80960
O2791       O  0.82368180  0.81557671  0.21178257    -0.83700
C2792       C  0.76602541  0.72911449  0.25691044     0.97060
C2793       C  0.81986564  0.75053227  0.32432600     1.04500
O2794       O  0.82785041  0.76428873  0.25243305    -1.12690
O2795       O  0.86642266  0.81067377  0.26130794    -0.75120
O2796       O  0.82210734  0.82317716  0.27800209    -0.78600
O2797       O  0.78892492  0.71527486  0.24883096    -0.79290
C2798       C  0.84952960  0.82670761  0.27740198     0.95970
O2799       O  0.78173051  0.79988448  0.23108529    -0.77250
O2800       O  0.88988383  0.75813091  0.23403284    -0.82440
C2801       C  0.84747245  0.73040534  0.18920912     0.98590
C2802       C  0.89579383  0.73850783  0.25327330     1.04510
O2803       O  0.84388344  0.71495126  0.21334453    -0.78090
C2804       C  0.79603967  0.81707242  0.21408305     1.02810
Fe2805     Fe  0.84215598  0.65394679  0.02209451     1.65780
Fe2806     Fe  0.84370589  0.70982961  0.97356541     1.73250
Fe2807     Fe  0.90529069  0.68980061  0.00835747     1.54410
O2808       O  0.90014657  0.68267956  0.05591450    -0.81820
O2809       O  0.87127144  0.69859267  0.93792514    -0.80130
O2810       O  0.85374691  0.66944597  0.06350256    -0.84330
O2811       O  0.87585235  0.62466054  0.02137823    -0.79180
O2812       O  0.90058035  0.73372222  0.01848315    -0.80960
O2813       O  0.81339509  0.67781989  0.96061713    -0.83700
C2814       C  0.89997572  0.62341607  0.00699853     0.97060
C2815       C  0.87762684  0.67910299  0.07320719     1.04500
O2816       O  0.86404963  0.68449564  0.00129162    -1.12690
O2817       O  0.81697725  0.72285658  0.00916864    -0.75120
O2818       O  0.80487936  0.67915905  0.02693337    -0.78600
O2819       O  0.91340086  0.64600855  0.99769668    -0.79290
C2820       C  0.80107954  0.70652761  0.02575330     0.95970
O2821       O  0.82924134  0.63697285  0.98107290    -0.77250
O2822       O  0.86969319  0.74580534  0.98209647    -0.82440
C2823       C  0.89872297  0.70261118  0.93787014     0.98590
C2824       C  0.88865096  0.75262008  0.00172064     1.04510
O2825       O  0.91372143  0.70034677  0.96220262    -0.78090
C2826       C  0.81187585  0.65030793  0.96395560     1.02810
Fe2827     Fe  0.86190885  0.91854435  0.04618688     1.65780
Fe2828     Fe  0.84404516  0.96341989  0.99046195     1.73250
Fe2829     Fe  0.91240542  0.93810015  0.99352950     1.54420
O2830       O  0.92925912  0.94022445  0.03849634    -0.81820
O2831       O  0.85052214  0.94352155  0.94911506    -0.80130
O2832       O  0.89003961  0.94410780  0.06958261    -0.84330
O2833       O  0.89342911  0.88667015  0.03959222    -0.79180
O2834       O  0.91644978  0.98282965  0.99432736    -0.80960
O2835       O  0.81140609  0.93226341  0.99919414    -0.83700
C2836       C  0.90345687  0.87643151  0.01447341     0.97060
C2837       C  0.91671370  0.94891906  0.06349007     1.04500
O2838       O  0.87285106  0.93966124  0.00930658    -1.12690
O2839       O  0.83718228  0.98450751  0.03135034    -0.75120
O2840       O  0.82793810  0.94600704  0.05942347    -0.78600
O2841       O  0.91015640  0.89301701  0.99227275    -0.79290
C2842       C  0.82286745  0.97217498  0.05246199     0.95970
O2843       O  0.83271801  0.89436703  0.02164320    -0.77250
O2844       O  0.87267891  0.99715754  0.97934449    -0.82440
C2845       C  0.87384969  0.93744148  0.93454148     0.98590
C2846       C  0.89879859  0.50257997  0.98672056     1.04510
O2847       O  0.89880892  0.93743251  0.94726577    -0.78090
C2848       C  0.81132237  0.90568656  0.00783591     1.02810
C2849       C  0.90699935  0.58283019  0.96998395    -0.21450
C2850       C  0.91073099  0.59390962  0.99980994    -0.09500
C2851       C  0.91534561  0.57439193  0.02391842     0.29360
C2852       C  0.91446976  0.54433532  0.01854461    -0.21450
C2853       C  0.90782925  0.53330952  0.98936131    -0.09510
C2854       C  0.90510234  0.55269760  0.96481585     0.29370
F2855       F  0.89881321  0.54258184  0.93635022    -0.20030
H2856       H  0.90254665  0.59750816  0.95130098     0.17730
H2857       H  0.91626327  0.52971640  0.03780594     0.17740
F2858       F  0.91776642  0.58440364  0.05317391    -0.20020
C2859       C  0.90318007  0.79590150  0.03328801    -0.21450
C2860       C  0.89678030  0.78369230  0.00457658    -0.09500
C2861       C  0.89665848  0.80182966  0.97864460     0.29360
C2862       C  0.90118849  0.83179437  0.98176125    -0.21450
C2863       C  0.90543083  0.84437847  0.01079239    -0.09510
C2864       C  0.90718321  0.82601586  0.03650188     0.29370
F2865       F  0.91183177  0.83725021  0.06490465    -0.20030
H2866       H  0.90364444  0.78233325  0.05349658     0.17730
H2867       H  0.89966185  0.84536294  0.96163234     0.17740
F2868       F  0.89156208  0.79067328  0.95028513    -0.20020
C2869       C  0.85253846  0.68637494  0.15519912    -0.21450
C2870       C  0.85761892  0.71613055  0.16035719    -0.09500
C2871       C  0.87436761  0.73176650  0.13854187     0.29360
C2872       C  0.88418270  0.71825424  0.11143129    -0.21450
C2873       C  0.87717550  0.68914565  0.10531957    -0.09510
C2874       C  0.86191060  0.67304856  0.12777871     0.29370
F2875       F  0.85469749  0.64482418  0.12239215    -0.20030
H2876       H  0.84036519  0.67367816  0.17188236     0.17730
H2877       H  0.89532350  0.73120355  0.09416562     0.17740
F2878       F  0.88102899  0.76025607  0.14313766    -0.20020
C2879       C  0.72650751  0.72685216  0.21948871    -0.21450
C2880       C  0.73692360  0.71888166  0.24833807    -0.09500
C2881       C  0.71696934  0.71013405  0.27125526     0.29360
C2882       C  0.68701541  0.71079941  0.26581650    -0.21450
C2883       C  0.67650245  0.72131075  0.23788626    -0.09510
C2884       C  0.69653008  0.72840655  0.21434416     0.29370
F2885       F  0.68711646  0.73841330  0.18703164    -0.20030
H2886       H  0.74152307  0.73453078  0.20187047     0.17730
H2887       H  0.67198037  0.70558982  0.28442843     0.17740
F2888       F  0.72633192  0.70357157  0.29975216    -0.20020
C2889       C  0.94515076  0.73165548  0.22971576    -0.21450
C2890       C  0.92663841  0.72953982  0.25569188    -0.09500
C2891       C  0.93838863  0.72053031  0.28362860     0.29360
C2892       C  0.96846082  0.71616635  0.28594959    -0.21450
C2893       C  0.98712155  0.71984144  0.26030229    -0.09510
C2894       C  0.97503328  0.72661812  0.23185247     0.29370
F2895       F  0.99234947  0.73094073  0.20670619    -0.20030
H2896       H  0.93656676  0.73813301  0.20780364     0.17730
H2897       H  0.97736077  0.71110531  0.30813101     0.17740
F2898       F  0.92121791  0.71790352  0.30912880    -0.20020
C2899       C  0.93638685  0.98086486  0.77015078    -0.21450
C2900       C  0.92716122  0.97443351  0.74050357    -0.09500
C2901       C  0.94798241  0.96631174  0.71795046     0.29360
C2902       C  0.97782004  0.96581614  0.72513678    -0.21450
C2903       C  0.98705023  0.97367949  0.75475827    -0.09510
C2904       C  0.96574073  0.98020418  0.77745459     0.29370
F2905       F  0.97343690  0.48787945  0.80638665    -0.20030
H2906       H  0.92072978  0.48833186  0.78738433     0.17730
H2907       H  0.99377209  0.96125993  0.70706300     0.17740
F2908       F  0.93963626  0.96014520  0.68891304    -0.20020
C2909       C  0.72419669  0.99711371  0.78108056    -0.21450
C2910       C  0.73901707  0.97499386  0.76459145    -0.09500
C2911       C  0.72293171  0.95610896  0.74576047     0.29360
C2912       C  0.69266472  0.95981985  0.74328725    -0.21450
C2913       C  0.67833574  0.98256424  0.75921543    -0.09510
C2914       C  0.69432496  0.00107347  0.77816308     0.29370
F2915       F  0.68112383  0.52355945  0.79320936    -0.20030
H2916       H  0.73597907  0.51224660  0.79545602     0.17730
H2917       H  0.68057144  0.94559292  0.72821487     0.17740
F2918       F  0.73636556  0.93429178  0.72979765    -0.20020
C2919       C  0.83726751  0.92719644  0.85867470    -0.21450
C2920       C  0.85531664  0.94436314  0.83997685    -0.09500
C2921       C  0.88271479  0.95286830  0.85092569     0.29360
C2922       C  0.89068665  0.94680854  0.88102733    -0.21450
C2923       C  0.87102653  0.93299889  0.90101962    -0.09510
C2924       C  0.84492815  0.92164636  0.88907458     0.29370
F2925       F  0.82550240  0.90772395  0.90767008    -0.20030
H2926       H  0.81590893  0.92081699  0.85092059     0.17730
H2927       H  0.91069512  0.95598689  0.88963970     0.17740
F2928       F  0.90037989  0.97002259  0.83371401    -0.20020
C2929       C  0.62480864  0.98021835  0.63763849    -0.21450
C2930       C  0.60789691  0.96508343  0.65957068    -0.09500
C2931       C  0.60200926  0.93538825  0.65440819     0.29360
C2932       C  0.61115000  0.92190743  0.62696925    -0.21450
C2933       C  0.62683081  0.93749024  0.60445969    -0.09510
C2934       C  0.63436285  0.96658042  0.61047418     0.29370
F2935       F  0.64864045  0.48263370  0.58893675    -0.20030
H2936       H  0.63040585  0.50287380  0.64131133     0.17730
H2937       H  0.60457780  0.89963359  0.62251279     0.17740
F2938       F  0.58625571  0.91971019  0.67510727    -0.20020
C2939       C  0.61222154  0.66768136  0.38176643    -0.21450
C2940       C  0.62953569  0.68726562  0.39853891    -0.09500
C2941       C  0.63802988  0.71353805  0.38487521     0.29360
C2942       C  0.62692937  0.72132871  0.35649516    -0.21450
C2943       C  0.60726648  0.70309802  0.34103026    -0.09510
C2944       C  0.60152467  0.67529998  0.35287342     0.29370
F2945       F  0.58327369  0.65684698  0.33822433    -0.20030
H2946       H  0.60496194  0.64756396  0.39221613     0.17730
H2947       H  0.63208623  0.74272770  0.34760366     0.17740
F2948       F  0.65351016  0.73355204  0.40090168    -0.20020
C2949       C  0.66372059  0.57829853  0.48996785    -0.21450
C2950       C  0.64990765  0.59363716  0.51421890    -0.09500
C2951       C  0.63316046  0.57772474  0.53597143     0.29360
C2952       C  0.62999630  0.54761679  0.53306807    -0.21450
C2953       C  0.64312807  0.53263370  0.50851553    -0.09510
C2954       C  0.66032238  0.54800016  0.48708796     0.29370
F2955       F  0.67319987  0.53377328  0.46301841    -0.20030
H2956       H  0.67655013  0.58980994  0.47286326     0.17730
H2957       H  0.61622850  0.53609770  0.54938442     0.17740
F2958       F  0.61838623  0.59128159  0.55927808    -0.20020
C2959       C  0.64512724  0.80053458  0.46241179    -0.21450
C2960       C  0.65622872  0.78191806  0.48480111    -0.09500
C2961       C  0.67014964  0.79433272  0.51035643     0.29360
C2962       C  0.67019154  0.82463850  0.51479902    -0.21450
C2963       C  0.65714004  0.84299072  0.49346794    -0.09510
C2964       C  0.64569724  0.83077399  0.46659957     0.29370
F2965       F  0.63217227  0.84794923  0.44602467    -0.20030
H2966       H  0.63430438  0.79160121  0.44255864     0.17730
H2967       H  0.67830436  0.83359079  0.53607408     0.17740
F2968       F  0.68082264  0.77719007  0.53272040    -0.20020
C2969       C  0.61944393  0.51371795  0.85416442    -0.21450
C2970       C  0.59107591  0.50256386  0.85327460    -0.09500
C2971       C  0.57440876  0.00123621  0.88051829     0.29360
C2972       C  0.58609931  0.01114610  0.90824754    -0.21450
C2973       C  0.61438872  0.52303534  0.90905481    -0.09510
C2974       C  0.63103218  0.52394713  0.88157709     0.29370
F2975       F  0.65814544  0.53571240  0.88082557    -0.20030
H2976       H  0.63206345  0.51619018  0.83307254     0.17730
H2977       H  0.57295353  0.00963839  0.92906163     0.17740
F2978       F  0.54651749  0.99156246  0.88003145    -0.20020
C2979       C  0.78907551  0.60314315  0.94917085    -0.21450
C2980       C  0.78696468  0.63362098  0.95175949    -0.09500
C2981       C  0.75925117  0.64660349  0.95063089     0.29360
C2982       C  0.73424726  0.62921644  0.95146214    -0.21450
C2983       C  0.73642710  0.59872026  0.95329369    -0.09510
C2984       C  0.76407506  0.58575929  0.94981153     0.29370
F2985       F  0.76731596  0.55641820  0.95115698    -0.20030
H2986       H  0.81016383  0.59261615  0.94971506     0.17730
H2987       H  0.71320973  0.63975371  0.95365484     0.17740
F2988       F  0.75609702  0.67593756  0.95296911    -0.20020
C2989       C  0.74471366  0.98407228  0.05356225    -0.21450
C2990       C  0.74496820  0.51374479  0.04614791    -0.09500
C2991       C  0.76954472  0.53067408  0.05322334     0.29360
C2992       C  0.79508896  0.51699905  0.06189503    -0.21450
C2993       C  0.79623342  0.98656411  0.06346642    -0.09510
C2994       C  0.77018491  0.97052695  0.06284771     0.29370
F2995       F  0.77030182  0.94112796  0.06593620    -0.20030
H2996       H  0.72554261  0.97089376  0.04972678     0.17730
H2997       H  0.81490436  0.52973816  0.06302463     0.17740
F2998       F  0.77021582  0.55977951  0.04804486    -0.20020
C2999       C  0.61507697  0.93936805  0.03577127    -0.21450
C3000       C  0.62211731  0.95100699  0.00688378    -0.09500
C3001       C  0.62221100  0.93240621  0.98100828     0.29360
C3002       C  0.61693415  0.90256807  0.98425885    -0.21450
C3003       C  0.61211648  0.89046986  0.01340589    -0.09510
C3004       C  0.61048989  0.90931484  0.03913563     0.29370
F3005       F  0.60550943  0.89855999  0.06767604    -0.20030
H3006       H  0.61472604  0.95327869  0.05597406     0.17730
H3007       H  0.61854294  0.88863743  0.96410760     0.17740
F3008       F  0.62818079  0.94298703  0.95256694    -0.20020
C3009       C  0.65130840  0.68821724  0.99059279    -0.21450
C3010       C  0.62505053  0.70252979  0.98517970    -0.09500
C3011       C  0.59897901  0.68624465  0.98609800     0.29360
C3012       C  0.59963446  0.65604102  0.99229719    -0.21450
C3013       C  0.62611593  0.64224262  0.99902057    -0.09510
C3014       C  0.65187629  0.65894649  0.99808039     0.29370
F3015       F  0.67797133  0.64726897  0.00525674    -0.20030
H3016       H  0.67166524  0.70013397  0.99062880     0.17730
H3017       H  0.57948910  0.64381913  0.99312272     0.17740
F3018       F  0.57309204  0.69943546  0.98112940    -0.20020
C3019       C  0.60509598  0.74278918  0.10068598    -0.21450
C3020       C  0.59045004  0.76715850  0.08904880    -0.09500
C3021       C  0.56664670  0.77863399  0.10566971     0.29360
C3022       C  0.56030088  0.76837819  0.13528463    -0.21450
C3023       C  0.57745117  0.74646538  0.14849582    -0.09510
C3024       C  0.59856591  0.73232823  0.13010570     0.29370
F3025       F  0.61585932  0.71151599  0.14214797    -0.20030
H3026       H  0.62353989  0.73361123  0.08811018     0.17730
H3027       H  0.54406357  0.77974657  0.14919129     0.17740
F3028       F  0.55215330  0.80216940  0.09513516    -0.20020
C3029       C  0.75035733  0.70319531  0.04566168    -0.21450
C3030       C  0.77600865  0.71948679  0.04210590    -0.09500
C3031       C  0.77595328  0.74919077  0.05021076     0.29360
C3032       C  0.74968223  0.76319635  0.05694303    -0.21450
C3033       C  0.72345545  0.74781488  0.05462408    -0.09510
C3034       C  0.72405213  0.71733529  0.05181799     0.29370
F3035       F  0.69889273  0.70189171  0.05072587    -0.20030
H3036       H  0.75007520  0.68011560  0.04030965     0.17730
H3037       H  0.74963160  0.78669492  0.05945901     0.17640
F3038       F  0.80078099  0.76520055  0.04870398    -0.20020
C3039       C  0.73208586  0.88338914  0.00226864    -0.21450
C3040       C  0.73434647  0.85291558  0.00238164    -0.09500
C3041       C  0.76217623  0.84003263  0.00150851     0.29360
C3042       C  0.78710767  0.85737717  0.00236541    -0.21450
C3043       C  0.78489536  0.88785541  0.00330074    -0.09510
C3044       C  0.75709312  0.90077539  0.00219630     0.29370
F3045       F  0.75391492  0.93015687  0.00253493    -0.20030
H3046       H  0.71090028  0.89376177  0.00262896     0.17730
H3047       H  0.80822007  0.84689795  0.00287865     0.17740
F3048       F  0.76536432  0.81064459  0.00152183    -0.20020
C3049       C  0.95617832  0.72583273  0.87854356    -0.21450
C3050       C  0.93865691  0.73463509  0.85422552    -0.09500
C3051       C  0.90832276  0.73314939  0.85784370     0.29360
C3052       C  0.89573478  0.72235286  0.88481510    -0.21450
C3053       C  0.91308718  0.71274915  0.90900678    -0.09510
C3054       C  0.94360302  0.71541404  0.90591388     0.29370
F3055       F  0.96137555  0.70701401  0.92874926    -0.20030
H3056       H  0.97965192  0.72565933  0.87570513     0.17730
H3057       H  0.87222144  0.72107785  0.88644497     0.17740
F3058       F  0.89087981  0.73920986  0.83399290    -0.20020
C3059       C  0.52453970  0.64193960  0.69697891    -0.21450
C3060       C  0.99418038  0.63985859  0.70105218    -0.09500
C3061       C  0.98116482  0.61212171  0.70025497     0.29360
C3062       C  0.99857099  0.58714004  0.70026813    -0.21450
C3063       C  0.52909170  0.58939424  0.70093212    -0.09510
C3064       C  0.54193852  0.61694036  0.69675419     0.29370
F3065       F  0.57129950  0.62020153  0.69683509    -0.20030
H3066       H  0.53506444  0.66305605  0.69711354     0.17730
H3067       H  0.98811609  0.56615483  0.70306603     0.17740
F3068       F  0.95191770  0.60900172  0.70384818    -0.20020
C3069       C  0.88228431  0.63225234  0.80478234    -0.21450
C3070       C  0.91178403  0.63195659  0.79589390    -0.09500
C3071       C  0.92802264  0.60621035  0.79889423     0.29360
C3072       C  0.91364805  0.58018253  0.80508350    -0.21450
C3073       C  0.88322789  0.57982859  0.80832607    -0.09510
C3074       C  0.86802036  0.60626676  0.81145726     0.29370
F3075       F  0.83865067  0.60668857  0.81554835    -0.20030
H3076       H  0.86966853  0.65214219  0.80367233     0.17730
H3077       H  0.92570532  0.55994179  0.80311509     0.17740
F3078       F  0.95685868  0.60531931  0.79155826    -0.20020
C3079       C  0.68035986  0.69253180  0.64790764    -0.21450
C3080       C  0.69083563  0.72070318  0.65459934    -0.09500
C3081       C  0.69604348  0.73996614  0.63014949     0.29360
C3082       C  0.68959559  0.73123765  0.59986172    -0.21450
C3083       C  0.67797268  0.70337860  0.59401705    -0.09510
C3084       C  0.67386380  0.68409205  0.61829862     0.29370
F3085       F  0.66110072  0.65774814  0.61370925    -0.20030
H3086       H  0.67547485  0.67711501  0.66597281     0.17730
H3087       H  0.69210159  0.74666278  0.58137915     0.17740
F3088       F  0.70664482  0.76706299  0.63549846    -0.20020
C3089       C  0.54817640  0.74825899  0.71817957    -0.21450
C3090       C  0.53573866  0.76313803  0.74348286    -0.09500
C3091       C  0.55408789  0.77807002  0.76365296     0.29360
C3092       C  0.58442782  0.77671347  0.75943232    -0.21450
C3093       C  0.59695212  0.75962709  0.73563798    -0.09510
C3094       C  0.57844518  0.74630156  0.71432188     0.29370
F3095       F  0.58954487  0.72994200  0.69080028    -0.20030
H3096       H  0.53443561  0.73586359  0.70290399     0.17730
H3097       H  0.59812709  0.78699889  0.77634489     0.17740
F3098       F  0.54280758  0.79159897  0.78900313    -0.20020
C3099       C  0.80268361  0.76807053  0.78660254    -0.21450
C3100       C  0.78442980  0.76200182  0.76178971    -0.09500
C3101       C  0.79706818  0.75281756  0.73372641     0.29360
C3102       C  0.82702290  0.74785657  0.73130286    -0.21450
C3103       C  0.84522346  0.75257084  0.75647985    -0.09510
C3104       C  0.83289777  0.76402367  0.78383081     0.29370
F3105       F  0.84967338  0.76998584  0.80834360    -0.20030
H3106       H  0.79343398  0.77526690  0.80842271     0.17730
H3107       H  0.83594826  0.73962340  0.70973449     0.17740
F3108       F  0.78025903  0.74648009  0.70925177    -0.20020
C3109       C  0.67712369  0.81471739  0.85548662    -0.21450
C3110       C  0.66326577  0.79245901  0.83923703    -0.09500
C3111       C  0.63721811  0.78059407  0.85130678     0.29360
C3112       C  0.62749828  0.78801010  0.88097239    -0.21450
C3113       C  0.64391827  0.80696160  0.89912730    -0.09510
C3114       C  0.66751681  0.82201045  0.88529683     0.29370
F3115       F  0.68336732  0.84124496  0.90190375    -0.20030
H3116       H  0.69720384  0.82405049  0.84662893     0.17730
H3117       H  0.60934972  0.77612031  0.89096796     0.17740
F3118       F  0.62317965  0.75916265  0.83582185    -0.20020
C3119       C  0.73229838  0.61472406  0.75496791    -0.21450
C3120       C  0.74513180  0.64238499  0.75793024    -0.09500
C3121       C  0.77573788  0.64448900  0.75751372     0.29360
C3122       C  0.79292314  0.61932639  0.75533966    -0.21450
C3123       C  0.77999928  0.59161513  0.75411494    -0.09510
C3124       C  0.74947003  0.58957855  0.75332984     0.29370
F3125       F  0.73618741  0.56324943  0.75129506    -0.20030
H3126       H  0.70883073  0.61242396  0.75501765     0.17730
H3127       H  0.81638685  0.62146528  0.75598483     0.17740
F3128       F  0.78909999  0.67078707  0.75950903    -0.20020
C3129       C  0.65640318  0.62899406  0.81197812    -0.21450
C3130       C  0.64037499  0.65497601  0.81259815    -0.09500
C3131       C  0.60999798  0.65379347  0.80947450     0.29360
C3132       C  0.59687645  0.62795997  0.80001989    -0.21450
C3133       C  0.61397246  0.60322073  0.79369896    -0.09510
C3134       C  0.64339891  0.60324629  0.80205399     0.29370
F3135       F  0.66017814  0.57916444  0.79813625    -0.20030
H3136       H  0.67982108  0.62937489  0.81452756     0.17730
H3137       H  0.57393912  0.62821748  0.79470644     0.17740
F3138       F  0.59386326  0.67856828  0.81076621    -0.20020
C3139       C  0.81129260  0.52410549  0.63650085    -0.21450
C3140       C  0.82693689  0.00077152  0.64913232    -0.09500
C3141       C  0.84598967  0.48475551  0.62991356     0.29360
C3142       C  0.85201905  0.49433344  0.60002950    -0.21450
C3143       C  0.83889716  0.51968530  0.58871383    -0.09510
C3144       C  0.81711140  0.53346573  0.60643947     0.29370
F3145       F  0.80427414  0.55810520  0.59628026    -0.20030
H3146       H  0.79657939  0.03686439  0.65093473     0.17730
H3147       H  0.86904882  0.48352127  0.58668884     0.17740
F3148       F  0.86186624  0.46249941  0.64127267    -0.20020
C3149       C  0.51086460  0.58862525  0.49730985    -0.21450
C3150       C  0.98333798  0.60198276  0.49898425    -0.09500
C3151       C  0.98159894  0.63255920  0.49898814     0.29360
C3152       C  0.50702404  0.64931591  0.49854132    -0.21450
C3153       C  0.53452630  0.63589730  0.49869442    -0.09510
C3154       C  0.53624796  0.60534787  0.49747103     0.29370
F3155       F  0.56243791  0.59162856  0.49694899    -0.20030
H3156       H  0.51279015  0.56510907  0.49725506     0.17730
H3157       H  0.50517352  0.67282884  0.49952710     0.17740
F3158       F  0.95539691  0.64624166  0.49985821    -0.20020
C3159       C  0.52434123  0.49737831  0.55423715    -0.21450
C3160       C  0.52383070  0.96773046  0.54618375    -0.09500
C3161       C  0.49760817  0.95212575  0.54887168     0.29360
C3162       C  0.97162848  0.96720815  0.55383636    -0.21450
C3163       C  0.97180583  0.49770365  0.55619123    -0.09510
C3164       C  0.49838269  0.51237537  0.55959179     0.29370
F3165       F  0.99926365  0.54182179  0.56255328    -0.20030
H3166       H  0.54453907  0.50954906  0.55322003     0.17730
H3167       H  0.95124232  0.95557094  0.55161861     0.17740
F3168       F  0.49644982  0.92322467  0.54218715    -0.20020
C3169       C  0.90436328  0.75668942  0.60434457    -0.21450
C3170       C  0.89292018  0.78496927  0.60357898    -0.09500
C3171       C  0.89225974  0.80177724  0.63061303     0.29360
C3172       C  0.90329551  0.79044905  0.65788189    -0.21450
C3173       C  0.91570387  0.76237140  0.65844908    -0.09510
C3174       C  0.91574642  0.74547307  0.63126842     0.29370
F3175       F  0.92780491  0.71848044  0.63021252    -0.20030
H3176       H  0.90636010  0.74393709  0.58334748     0.17730
H3177       H  0.90239138  0.80380215  0.67848097     0.17740
F3178       F  0.88244485  0.82963909  0.63019744    -0.20020
C3179       C  0.84713751  0.90496916  0.49162737    -0.21450
C3180       C  0.87235711  0.89139449  0.50260250    -0.09500
C3181       C  0.89789577  0.90824373  0.50541112     0.29360
C3182       C  0.89834491  0.93734355  0.49718587    -0.21450
C3183       C  0.87323249  0.95130937  0.48724032    -0.09510
C3184       C  0.84735012  0.93501036  0.48467532     0.29370
F3185       F  0.82256575  0.94796819  0.47526506    -0.20030
H3186       H  0.82720712  0.89262583  0.48934749     0.17730
H3187       H  0.91843219  0.94937962  0.49985087     0.17740
F3188       F  0.92283200  0.89677252  0.51639292    -0.20020
C3189       C  0.86261088  0.68869376  0.53267798    -0.21450
C3190       C  0.87051128  0.70051396  0.50410577    -0.09500
C3191       C  0.87195969  0.68191102  0.47820759     0.29360
C3192       C  0.86708823  0.65197185  0.48122309    -0.21450
C3193       C  0.86126814  0.63981350  0.51014036    -0.09510
C3194       C  0.85836871  0.65859243  0.53580380     0.29370
F3195       F  0.85239581  0.64772925  0.56410503    -0.20030
H3196       H  0.86119010  0.70255565  0.55289142     0.17730
H3197       H  0.86970610  0.63805138  0.46116241     0.17740
F3198       F  0.87873577  0.69257785  0.44998877    -0.20020
C3199       C  0.82640519  0.77721076  0.40556877    -0.21450
C3200       C  0.85594582  0.77158851  0.41060135    -0.09500
C3201       C  0.87146339  0.75390435  0.38925017     0.29360
C3202       C  0.85814808  0.74376750  0.36261886    -0.21450
C3203       C  0.82934142  0.75136149  0.35645221    -0.09510
C3204       C  0.81328332  0.76751954  0.37858780     0.29370
F3205       F  0.78532761  0.77527797  0.37326431    -0.20030
H3206       H  0.81375750  0.79004438  0.42196828     0.17730
H3207       H  0.87109578  0.73187467  0.34568009     0.17740
F3208       F  0.89966594  0.74657285  0.39387737    -0.20020
C3209       C  0.51710938  0.78217756  0.54466237    -0.21450
C3210       C  0.99225490  0.76515209  0.53963733    -0.09500
C3211       C  0.99213118  0.73571223  0.54812324     0.29360
C3212       C  0.51803544  0.72250180  0.55638576    -0.21450
C3213       C  0.54404848  0.73847241  0.55520893    -0.09510
C3214       C  0.54306272  0.76885122  0.55244910     0.29370
F3215       F  0.56791330  0.78484940  0.55262408    -0.20030
H3216       H  0.51734011  0.80518890  0.53937755     0.17730
H3217       H  0.51835334  0.69905634  0.55902373     0.17740
F3218       F  0.96777361  0.71916898  0.54567141    -0.20020
C3219       C  0.50647390  0.83906894  0.44780513    -0.21450
C3220       C  0.97938556  0.85282632  0.45239070    -0.09500
C3221       C  0.97836811  0.88349654  0.45259853     0.29360
C3222       C  0.50417882  0.89972455  0.45251032    -0.21450
C3223       C  0.53134181  0.88564739  0.45260821    -0.09510
C3224       C  0.53226773  0.85524910  0.44818061     0.29370
F3225       F  0.55810212  0.84087700  0.44724151    -0.20030
H3226       H  0.50799740  0.81552910  0.44735578     0.17730
H3227       H  0.50278906  0.92310423  0.45572996     0.17740
F3228       F  0.95258448  0.89772533  0.45578366    -0.20020
C3229       C  0.69842159  0.48190844  0.37841962    -0.21450
C3230       C  0.68103880  0.98469451  0.35252644    -0.09500
C3231       C  0.65141587  0.97743508  0.35473860     0.29360
C3232       C  0.63954145  0.96691227  0.38217912    -0.21450
C3233       C  0.65695282  0.96326607  0.40809760    -0.09510
C3234       C  0.68650561  0.97168581  0.40613982     0.29370
F3235       F  0.70411400  0.46959258  0.43069165    -0.20030
H3236       H  0.72156698  0.48626076  0.37671278     0.17730
H3237       H  0.61671672  0.96102301  0.38283673     0.17740
F3238       F  0.63451872  0.97806827  0.32950820    -0.20020
C3239       C  0.66140339  0.54594834  0.15646082    -0.21450
C3240       C  0.66601369  0.51570408  0.15812501    -0.09500
C3241       C  0.65684584  0.49796770  0.13346590     0.29360
C3242       C  0.64479276  0.51042223  0.10747430    -0.21450
C3243       C  0.64200768  0.54067046  0.10512599    -0.09510
C3244       C  0.64984874  0.55835471  0.13007855     0.29370
F3245       F  0.64822467  0.58777938  0.12797973    -0.20030
H3246       H  0.66752521  0.56015712  0.17522142     0.17730
H3247       H  0.64004116  0.99653175  0.08795664     0.17740
F3248       F  0.66015865  0.96859406  0.13388744    -0.20020
C3249       C  0.73343797  0.86619270  0.19692421    -0.21450
C3250       C  0.74691494  0.89337510  0.20095956    -0.09500
C3251       C  0.77755373  0.89481425  0.20004621     0.29360
C3252       C  0.79407641  0.86923315  0.19976612    -0.21450
C3253       C  0.78029114  0.84195914  0.20084631    -0.09510
C3254       C  0.74993872  0.84060836  0.19709693     0.29370
F3255       F  0.73591848  0.81458159  0.19692418    -0.20030
H3256       H  0.70992416  0.86442808  0.19723880     0.17730
H3257       H  0.81742112  0.87091473  0.20236638     0.17740
F3258       F  0.79146261  0.92077229  0.20274547    -0.20020
C3259       C  0.65725015  0.83307334  0.30544218    -0.21450
C3260       C  0.62673264  0.83313588  0.30615188    -0.09500
C3261       C  0.61173094  0.85977937  0.30597723     0.29360
C3262       C  0.62675767  0.88505957  0.29823769    -0.21450
C3263       C  0.65675532  0.88389450  0.29165272    -0.09510
C3264       C  0.67235945  0.85840823  0.29816507     0.29370
F3265       F  0.70160991  0.85681752  0.29347918    -0.20030
H3266       H  0.66911584  0.81269898  0.30619137     0.17730
H3267       H  0.61454913  0.90489769  0.29467251     0.17740
F3268       F  0.58220867  0.86067910  0.30789211    -0.20020
C3269       C  0.92012404  0.99076912  0.09911534    -0.21450
C3270       C  0.93268076  0.96499188  0.08724023    -0.09500
C3271       C  0.95512555  0.95166371  0.10328171     0.29360
C3272       C  0.96192537  0.96174477  0.13273522    -0.21450
C3273       C  0.94647093  0.98521050  0.14635197    -0.09510
C3274       C  0.92709133  0.00102255  0.12838512     0.29370
F3275       F  0.91153533  0.52349539  0.14075671    -0.20030
H3276       H  0.90266239  0.00127063  0.08700431     0.17730
H3277       H  0.97691368  0.94919119  0.14625414     0.17740
F3278       F  0.96752073  0.92670526  0.09244803    -0.20020
C3279       C  0.83550365  0.01082542  0.27054957    -0.21450
C3280       C  0.84604988  0.51236604  0.24026166    -0.09500
C3281       C  0.82627307  0.51652894  0.21644856     0.29360
C3282       C  0.79615334  0.51742917  0.22297130    -0.21450
C3283       C  0.78555849  0.51340841  0.25315578    -0.09510
C3284       C  0.80566257  0.01093567  0.27700872     0.29370
F3285       F  0.79638052  0.00640682  0.30636515    -0.20030
H3286       H  0.85046121  0.00742753  0.28914581     0.17730
H3287       H  0.78109683  0.51879578  0.20415913     0.17740
F3288       F  0.83598440  0.51851770  0.18694827    -0.20020
C3289       C  0.54741903  0.00776231  0.22886907    -0.21450
C3290       C  0.53463894  0.51378307  0.25771185    -0.09500
C3291       C  0.55272776  0.51693430  0.28330166     0.29360
C3292       C  0.58281708  0.51251963  0.28025342    -0.21450
C3293       C  0.59524013  0.50416208  0.25186161    -0.09510
C3294       C  0.57736141  0.00271193  0.22594135     0.29370
F3295       F  0.58871633  0.99573589  0.19783647    -0.20030
H3296       H  0.53397047  0.00506459  0.20887871     0.17730
H3297       H  0.59616021  0.51416297  0.30042192     0.17740
F3298       F  0.54117680  0.52325771  0.31147242    -0.20020
C3299       C  0.87939024  0.52972795  0.38072926    -0.21450
C3300       C  0.89342492  0.55161163  0.39740384    -0.09500
C3301       C  0.91544250  0.56811877  0.38263489     0.29360
C3302       C  0.92549758  0.56043699  0.35305605    -0.21450
C3303       C  0.91406487  0.53592662  0.33824756    -0.09510
C3304       C  0.88990477  0.52157430  0.35162398     0.29370
F3305       F  0.87838790  0.99767269  0.33790141    -0.20030
H3306       H  0.86272675  0.01648339  0.39165969     0.17730
H3307       H  0.94408663  0.57172554  0.34318792     0.17740
F3308       F  0.92925666  0.58970108  0.39807299    -0.20020
C3309       C  0.52344760  0.89422756  0.24263551    -0.21450
C3310       C  0.99294011  0.89227955  0.24349884    -0.09500
C3311       C  0.97988871  0.86452454  0.24255690     0.29360
C3312       C  0.99709621  0.83938503  0.24319229    -0.21450
C3313       C  0.52758723  0.84136271  0.24389242    -0.09510
C3314       C  0.54066280  0.86909480  0.24237604     0.29370
F3315       F  0.57004821  0.87210286  0.24267805    -0.20030
H3316       H  0.53402183  0.91531258  0.24303838     0.17730
H3317       H  0.98651151  0.81831658  0.24402685     0.17740
F3318       F  0.95048656  0.86158879  0.24308940    -0.20020
C3319       C  0.86086198  0.90335828  0.30381655    -0.21450
C3320       C  0.89133327  0.90351916  0.30531898    -0.09500
C3321       C  0.90639502  0.87698035  0.30713442     0.29360
C3322       C  0.89180581  0.85107935  0.30099706    -0.21450
C3323       C  0.86214669  0.85153603  0.29385178    -0.09510
C3324       C  0.84618384  0.87742286  0.29809276     0.29370
F3325       F  0.81723424  0.87850352  0.29250783    -0.20030
H3326       H  0.84890434  0.92367236  0.30292973     0.17730
H3327       H  0.90425621  0.83109346  0.29895284     0.17740
F3328       F  0.93581495  0.87633456  0.30954686    -0.20020
loop_ 
_geom_bond_atom_site_label_1 
_geom_bond_atom_site_label_2 
_geom_bond_distance 
_geom_bond_site_symmetry_2 
_ccdc_geom_bond_type 
Fe1          O17   2.055       .  S
Fe1           O7   2.075       .  S
Fe1          O14   2.078       .  S
Fe1           O6   2.028       .  S
Fe1          O12   1.937       .  S
Fe2           O5   2.028       .  S
Fe2           O9   2.106       .  S
Fe2          O13   2.037       .  S
Fe2          O18   2.096       .  S
Fe2          O12   1.916       .  S
Fe3          O21   2.123       .  S
Fe3           O8   2.061       .  S
Fe3          O15   2.075       .  S
Fe3           O4   2.122       .  S
Fe3         O844   1.934   1_545  S
O4           C11   1.283       .  A
O5          C851   1.265       .  A
O6          C843   1.267       .  A
O7          C842   1.268       .  A
O8           C20   1.267       .  A
O9           C22   1.279       .  A
C10          O15   1.271       .  A
C10         O839   1.268   1_545  A
C10        C2458   1.479       .  S
C11         O838   1.267   1_545  A
C11         C807   1.477       .  S
O12        Fe835   1.934       .  S
O13          C16   1.261       .  A
O14          C16   1.267       .  A
C16         C824   1.462       .  S
O17          C22   1.273       .  A
O18         C852   1.273       .  A
C19          O21   1.282   1_565  A
C19         O837   1.265       .  A
C19        C1609   1.477       .  S
C20         O850   1.273   1_545  A
C20         C784   1.476       .  S
C22         C814   1.482       .  S
Fe23         O39   2.041       .  S
Fe23         O29   2.051       .  S
Fe23         O36   2.065       .  S
Fe23         O28   2.010       .  S
Fe23         O34   1.941       .  S
Fe24         O27   2.042       .  S
Fe24         O31   2.108       .  S
Fe24         O35   2.046       .  S
Fe24         O40   2.078       .  S
Fe24         O34   1.927       .  S
Fe25         O43   2.102       .  S
Fe25         O30   2.071       .  S
Fe25         O37   2.099       .  S
Fe25         O26   2.117       .  S
Fe25        O866   1.933   1_545  S
O26         C865   1.282   1_545  A
O27         C873   1.271       .  A
O28          C33   1.261       .  A
O29         C864   1.264       .  A
O30          C42   1.271   1_545  A
O31          C44   1.278       .  A
C32          O37   1.273       .  A
C32         O861   1.264   1_545  A
C32         C787   1.481       .  S
C33         O858   1.282       .  A
C33         C734   1.463       .  S
O34        Fe857   1.933       .  S
O35          C38   1.266       .  A
O36          C38   1.267       .  A
C38         C767   1.466       .  S
O39          C44   1.266       .  A
O40         C874   1.271       .  A
C41          O43   1.280       .  A
C41         O859   1.271   1_545  A
C41         C744   1.487       .  S
C42         O872   1.271       .  A
C42         C797   1.481   1_565  S
C44         C754   1.480       .  S
Fe45         O61   2.049       .  S
Fe45         O51   2.043       .  S
Fe45         O58   2.052       .  S
Fe45         O50   2.005       .  S
Fe45         O56   1.938       .  S
Fe46         O49   2.045       .  S
Fe46         O53   2.116       .  S
Fe46         O57   2.052       .  S
Fe46         O62   2.079       .  S
Fe46         O56   1.917       .  S
Fe47         O65   2.102       .  S
Fe47         O52   2.081       .  S
Fe47         O59   2.121       .  S
Fe47         O48   2.135       .  S
Fe47         O56   1.932       .  S
O48          C55   1.287       .  A
O49          C63   1.272       .  A
O50          C55   1.263       .  A
O51          C54   1.256       .  A
O52          C64   1.275       .  A
O53          C66   1.282       .  A
C54          O59   1.272       .  A
C54         C684   1.490       .  S
C55         C674   1.466       .  S
O57          C60   1.266       .  A
O58          C60   1.263       .  A
C60         C714   1.462       .  S
O61          C66   1.270       .  A
O62          C64   1.273       .  A
C63          O65   1.280       .  A
C63         C704   1.483       .  S
C64         C694   1.485       .  S
C66         C724   1.484       .  S
Fe67         O83   2.058       .  S
Fe67         O73   2.078       .  S
Fe67         O80   2.084       .  S
Fe67         O72   2.032       .  S
Fe67         O78   1.934       .  S
Fe68         O71   2.032       .  S
Fe68         O75   2.089       .  S
Fe68         O79   2.036       .  S
Fe68        O916   2.082   1_545  S
Fe68         O78   1.911       .  S
Fe69         O87   2.125       .  S
Fe69         O81   2.082       .  S
Fe69         O70   2.123       .  S
Fe69        O906   2.075       .  S
Fe69         O78   1.937       .  S
O70          C77   1.282       .  A
O71          C85   1.264       .  A
O72          C77   1.266       .  A
O73          C76   1.270       .  A
O74        Fe901   2.075       .  S
O74          C86   1.270       .  A
O75          C88   1.275       .  A
C76          O81   1.274       .  A
C76         C697   1.485       .  S
C77         C647   1.477       .  S
O79          C82   1.263       .  A
O80          C82   1.270       .  A
C82         C667   1.462   1_545  S
O83          C88   1.271       .  A
O84        Fe900   2.082       .  S
O84          C86   1.273       .  A
C85          O87   1.282       .  A
C85         C804   1.478       .  S
C86         C687   1.482       .  S
C88         C654   1.478       .  S
Fe89        O105   2.058       .  S
Fe89         O95   2.087       .  S
Fe89        O102   2.103       .  S
Fe89         O94   2.028       .  S
Fe89        O100   1.926       .  S
Fe90         O93   2.009       .  S
Fe90         O97   2.102       .  S
Fe90        O101   2.025       .  S
Fe90        O106   2.103       .  S
Fe90        O100   1.892       .  S
Fe91        O109   2.150       .  S
Fe91         O96   2.059       .  S
Fe91        O103   2.070       .  S
Fe91         O92   2.125       .  S
Fe91        O100   1.933       .  S
O92          C99   1.284       .  A
O93         C107   1.257       .  A
O94          C99   1.268       .  A
O95          C98   1.273       .  A
O96         C108   1.268       .  A
O97         C110   1.277       .  A
C98         O103   1.273       .  A
C98         C604   1.481       .  S
C99         C614   1.474       .  S
O101        C104   1.260       .  A
O102        C104   1.274       .  A
C104        C634   1.462       .  S
O105        C110   1.271       .  A
O106        C108   1.276       .  A
C107        O109   1.284       .  A
C107        C584   1.485       .  S
C108        C597   1.487       .  S
C110        C624   1.485       .  S
Fe111       O127   2.043       .  S
Fe111       O117   2.045       .  S
Fe111       O124   2.068       .  S
Fe111       O116   2.015       .  S
Fe111       O122   1.952       .  S
Fe112       O115   2.045       .  S
Fe112       O119   2.103       .  S
Fe112       O123   2.047       .  S
Fe112       O128   2.073       .  S
Fe112       O122   1.934       .  S
Fe113       O131   2.109       .  S
Fe113       O118   2.078       .  S
Fe113       O125   2.101       .  S
Fe113       O114   2.116       .  S
Fe113       O122   1.942       .  S
O114        C121   1.283       .  A
O115        C129   1.273       .  A
O116        C121   1.262       .  A
O117        C120   1.262       .  A
O118        C130   1.270       .  A
O119        C132   1.275       .  A
C120        O125   1.273       .  A
C120       C2258   1.473       .  S
C121        C554   1.469       .  S
O123        C126   1.268       .  A
O124        C126   1.269       .  A
C126        C574   1.466       .  S
O127        C132   1.265       .  A
O128        C130   1.269       .  A
C129        O131   1.282       .  A
C129        C677   1.488       .  S
C130        C607   1.486       .  S
C132        C564   1.481       .  S
Fe133       O149   2.059       .  S
Fe133       O139   2.081       .  S
Fe133       O146   2.087       .  S
Fe133       O138   2.033       .  S
Fe133       O144   1.934       .  S
Fe134       O137   2.031       .  S
Fe134       O141   2.089       .  S
Fe134       O145   2.037   1_556  S
Fe134       O150   2.080       .  S
Fe134       O144   1.909   1_556  S
Fe135       O153   2.129       .  S
Fe135       O140   2.078       .  S
Fe135       O147   2.080       .  S
Fe135       O136   2.121   1_556  S
Fe135       O144   1.937   1_556  S
O136        C143   1.282       .  A
O137        C151   1.265       .  A
O138        C143   1.267       .  A
O139        C142   1.271       .  A
O140        C152   1.269       .  A
O141        C154   1.275   1_556  A
C142        O147   1.274   1_554  A
C142        C507   1.486       .  S
C143        C524   1.478       .  S
O145        C148   1.263       .  A
O146        C148   1.271       .  A
C148        C537   1.461       .  S
O149        C154   1.271       .  A
O150        C152   1.272       .  A
C151        O153   1.284       .  A
C151        C617   1.482       .  S
C152        C514   1.485       .  S
C154        C544   1.478       .  S
Fe155       O171   2.044   1_554  S
Fe155       O161   2.044       .  S
Fe155       O168   2.058       .  S
Fe155       O160   2.002       .  S
Fe155       O166   1.938       .  S
Fe156       O159   2.047       .  S
Fe156       O163   2.113       .  S
Fe156       O167   2.058   1_556  S
Fe156      O1004   2.078   1_545  S
Fe156       O166   1.924   1_556  S
Fe157       O175   2.102   1_554  S
Fe157       O169   2.119   1_554  S
Fe157       O158   2.126       .  S
Fe157       O994   2.082       .  S
Fe157       O166   1.935       .  S
O158        C165   1.285       .  A
O159        C173   1.272       .  A
O160        C165   1.263       .  A
O161        C164   1.258       .  A
O162       Fe989   2.082       .  S
O162        C174   1.274       .  A
O163        C176   1.280       .  A
C164        O169   1.273   1_554  A
C164        C517   1.489   1_554  S
C165        C747   1.462       .  S
O167        C170   1.267       .  A
O168        C170   1.265       .  A
C170        C494   1.470       .  S
O171        C176   1.268       .  A
O172       Fe988   2.078       .  S
O172        C174   1.272   1_556  A
C173        O175   1.281       .  A
C173        C477   1.486       .  S
C174        C504   1.484       .  S
C176        C487   1.483       .  S
Fe177       O193   2.051       .  S
Fe177       O183   2.061       .  S
Fe177       O190   2.067       .  S
Fe177       O182   2.025       .  S
Fe177       O188   1.927       .  S
Fe178       O181   2.034       .  S
Fe178       O185   2.101       .  S
Fe178       O189   2.039       .  S
Fe178       O194   2.091       .  S
Fe178       O188   1.906       .  S
Fe179       O197   2.123       .  S
Fe179       O184   2.070       .  S
Fe179       O191   2.097       .  S
Fe179       O180   2.123       .  S
Fe179       O188   1.930       .  S
O180        C187   1.283       .  A
O181        C195   1.263       .  A
O182        C187   1.266       .  A
O183        C186   1.265       .  A
O184        C196   1.272       .  A
O185        C198   1.278       .  A
C186        O191   1.275       .  A
C186        C454   1.490       .  S
C187        C587   1.466       .  S
O189        C192   1.262       .  A
O190        C192   1.265       .  A
C192        C717   1.455       .  S
O193        C198   1.272       .  A
O194        C196   1.276       .  A
C195        O197   1.281       .  A
C195        C444   1.473       .  S
C196        C464   1.486       .  S
C198        C657   1.476       .  S
Fe199       O215   2.044       .  S
Fe199       O205   2.052       .  S
Fe199       O212   2.074       .  S
Fe199       O204   2.019       .  S
Fe199       O210   1.952       .  S
Fe200       O203   2.048       .  S
Fe200       O207   2.105       .  S
Fe200       O211   2.044       .  S
Fe200       O216   2.076       .  S
Fe200       O210   1.941       .  S
Fe201       O219   2.098       .  S
Fe201       O206   2.067       .  S
Fe201       O213   2.092       .  S
Fe201       O202   2.106       .  S
Fe201       O210   1.946       .  S
O202        C209   1.280       .  A
O203        C217   1.274       .  A
O204        C209   1.263       .  A
O205        C208   1.264       .  A
O206       C1050   1.267       .  A
O207        C220   1.275       .  A
C208        O213   1.272       .  A
C208        C467   1.472       .  S
C209        C437   1.473       .  S
O211        C214   1.268       .  A
O212        C214   1.270       .  A
C214        C664   1.466       .  S
O215        C220   1.264       .  A
O216       C1050   1.268       .  A
C217        O219   1.280       .  A
C217        C737   1.487       .  S
C218       O1038   1.267   1_545  A
C218       O1048   1.268   1_545  A
C218        C457   1.470       .  S
C220        C727   1.483       .  S
Fe221       O237   2.052       .  S
Fe221       O234   2.075       .  S
Fe221      O1059   2.066   1_545  S
Fe221      O1058   2.033   1_545  S
Fe221       O232   1.932       .  S
Fe222       O225   2.034       .  S
Fe222       O229   2.111       .  S
Fe222       O233   2.038       .  S
Fe222       O238   2.097       .  S
Fe222       O232   1.916       .  S
Fe223       O241   2.128       .  S
Fe223       O228   2.068       .  S
Fe223       O235   2.088       .  S
Fe223       O224   2.129       .  S
Fe223      O1064   1.936       .  S
O224        C231   1.284       .  A
O225       C1071   1.265   1_545  A
O226      Fe1053   2.033       .  S
O226        C231   1.267       .  A
O227      Fe1053   2.066       .  S
O227        C230   1.268       .  A
O228        C240   1.270       .  A
O229        C242   1.280       .  A
C230        O235   1.273       .  A
C230        C414   1.483       .  S
C231        C424   1.475       .  S
O232      Fe1055   1.936   1_545  S
O233        C236   1.261       .  A
O234        C236   1.267       .  A
C236        C577   1.461       .  S
O237        C242   1.272       .  A
O238       C1072   1.274   1_545  A
C239        O241   1.283       .  A
C239       O1057   1.265       .  A
C239        C644   1.482       .  S
C240       O1070   1.274       .  A
C240        C404   1.477       .  S
C242        C627   1.481       .  S
Fe243       O259   2.040       .  S
Fe243       O256   2.065       .  S
Fe243       O248   2.012       .  S
Fe243      O1081   2.049       .  S
Fe243       O254   1.947       .  S
Fe244       O251   2.114       .  S
Fe244       O255   2.055       .  S
Fe244      O1079   2.054       .  S
Fe244      O1092   2.073       .  S
Fe244       O254   1.931       .  S
Fe245       O263   2.089       .  S
Fe245       O250   2.073       .  S
Fe245       O257   2.103       .  S
Fe245       O246   2.123       .  S
Fe245      O1086   1.940       .  S
O246        C253   1.283       .  A
O247      Fe1076   2.054       .  S
O247        C261   1.274       .  A
O248       C1085   1.263       .  A
O249      Fe1075   2.049       .  S
O249        C252   1.262       .  A
O250        C262   1.271       .  A
O251        C264   1.281       .  A
C252        O257   1.271       .  A
C252       C2071   1.487   1_455  S
C253       O1080   1.263       .  A
C253       C1306   1.465       .  S
O254      Fe1077   1.940   1_545  S
O255        C258   1.265       .  A
O256        C258   1.265       .  A
C258        C637   1.472       .  S
O259        C264   1.268       .  A
O260      Fe1076   2.073       .  S
O260        C262   1.270       .  A
C261        O263   1.278       .  A
C261        C434   1.484       .  S
C262        C417   1.470       .  S
C264        C567   1.482       .  S
Fe265       O281   2.058       .  S
Fe265       O271   2.072       .  S
Fe265       O278   2.076       .  S
Fe265       O270   2.028       .  S
Fe265       O276   1.941       .  S
Fe266       O269   2.028       .  S
Fe266       O273   2.104       .  S
Fe266       O277   2.037       .  S
Fe266       O282   2.092       .  S
Fe266       O276   1.914       .  S
Fe267       O285   2.128       .  S
Fe267       O272   2.061       .  S
Fe267       O279   2.075       .  S
Fe267       O268   2.127       .  S
Fe267       O276   1.934       .  S
O268        C275   1.284       .  A
O269        C283   1.265       .  A
O270        C275   1.268       .  A
O271        C274   1.266       .  A
O272        C284   1.267       .  A
O273        C286   1.279       .  A
C274        O279   1.270       .  A
C274       C2061   1.478   1_455  S
C275        C447   1.484       .  S
O277        C280   1.261       .  A
O278        C280   1.266       .  A
C280        C764   1.459       .  S
O281        C286   1.274       .  A
O282        C284   1.273       .  A
C283        O285   1.283       .  A
C283        C527   1.478       .  S
C284        C387   1.480       .  S
C286        C817   1.483       .  S
Fe287       O303   2.042       .  S
Fe287       O293   2.049       .  S
Fe287       O300   2.072       .  S
Fe287       O292   2.017       .  S
Fe287       O298   1.949       .  S
Fe288       O291   2.042       .  S
Fe288       O295   2.102       .  S
Fe288       O299   2.044       .  S
Fe288       O304   2.071       .  S
Fe288       O298   1.938       .  S
Fe289       O307   2.103       .  S
Fe289       O294   2.072       .  S
Fe289       O301   2.092       .  S
Fe289       O290   2.113       .  S
Fe289       O298   1.941       .  S
O290        C297   1.281       .  A
O291        C305   1.273       .  A
O292        C297   1.263       .  A
O293        C296   1.263       .  A
O294        C306   1.269       .  A
O295        C308   1.274       .  A
C296        O301   1.272       .  A
C296        C384   1.471       .  S
C297        C707   1.474       .  S
O299        C302   1.268       .  A
O300        C302   1.270       .  A
C302        C827   1.467       .  S
O303        C308   1.263       .  A
O304        C306   1.269       .  A
C305        O307   1.282       .  A
C305        C374   1.481       .  S
C306        C394   1.482       .  S
C308        C757   1.479       .  S
Fe309       O325   2.042   1_554  S
Fe309       O315   2.050       .  S
Fe309       O322   2.074       .  S
Fe309       O314   2.015       .  S
Fe309       O320   1.947       .  S
Fe310       O313   2.048       .  S
Fe310       O317   2.106       .  S
Fe310       O321   2.046   1_556  S
Fe310       O326   2.074       .  S
Fe310       O320   1.937   1_556  S
Fe311       O329   2.101   1_554  S
Fe311       O316   2.072       .  S
Fe311       O323   2.092   1_554  S
Fe311       O312   2.109       .  S
Fe311       O320   1.940       .  S
O312        C319   1.280       .  A
O313        C327   1.275       .  A
O314        C319   1.262       .  A
O315        C318   1.264       .  A
O316        C328   1.270       .  A
O317        C330   1.275       .  A
C318        O323   1.272   1_554  A
C318        C354   1.472   1_554  S
C319        C377   1.469       .  S
O321        C324   1.268       .  A
O322        C324   1.271       .  A
C324        C534   1.467       .  S
O325        C330   1.264       .  A
O326        C328   1.269   1_556  A
C327        O329   1.280       .  A
C327        C557   1.488       .  S
C328        C364   1.480       .  S
C330        C484   1.482       .  S
Fe331       O347   2.052       .  S
Fe331       O337   2.074       .  S
Fe331       O344   2.077       .  S
Fe331       O336   2.029       .  S
Fe331       O342   1.942       .  S
Fe332       O335   2.030       .  S
Fe332       O339   2.105       .  S
Fe332       O343   2.040   1_556  S
Fe332       O348   2.087       .  S
Fe332       O342   1.916   1_556  S
Fe333       O351   2.121       .  S
Fe333       O338   2.063       .  S
Fe333       O345   2.073       .  S
Fe333       O334   2.121   1_556  S
Fe333       O342   1.932   1_556  S
O334        C341   1.283       .  A
O335        C349   1.266       .  A
O336        C341   1.269       .  A
O337        C340   1.266       .  A
O338       C1182   1.267       .  A
O339        C352   1.280   1_556  A
C340        O345   1.269   1_554  A
C340        C367   1.482       .  S
C341        C774   1.473       .  S
O343        C346   1.259       .  A
O344        C346   1.264       .  A
C346        C497   1.462       .  S
O347        C352   1.275       .  A
O348       C1182   1.272       .  A
C349        O351   1.283       .  A
C349        C427   1.481       .  S
C350       O1170   1.267   1_545  A
C350       O1180   1.272   1_545  A
C350        C357   1.475       .  S
C352        C547   1.480       .  S
C353        C354   1.405       .  A
C353        C358   1.403       .  A
C353        H360   1.083       .  S
C354        C355   1.405   1_556  A
C355        C356   1.399       .  A
C355        F362   1.358       .  S
C356        C357   1.404   1_554  A
C356        H361   1.083       .  S
C357        C358   1.404       .  A
C358        F359   1.357       .  S
C363        C364   1.403       .  A
C363        C368   1.401       .  A
C363        H370   1.083       .  S
C364        C365   1.409   1_554  A
C365        C366   1.398       .  A
C365        F372   1.358       .  S
C366        C367   1.403   1_556  A
C366        H371   1.083       .  S
C367        C368   1.411       .  A
C368        F369   1.357       .  S
C373        C374   1.403       .  A
C373        C378   1.399       .  A
C373        H380   1.083       .  S
C374        C375   1.413       .  A
C375        C376   1.397       .  A
C375        F382   1.358       .  S
C376        C377   1.400       .  A
C376        H381   1.084       .  S
C377        C378   1.408       .  A
C378        F379   1.358       .  S
C383        C384   1.404       .  A
C383        C388   1.401       .  A
C383        H390   1.084       .  S
C384        C385   1.404       .  A
C385        C386   1.401       .  A
C385        F392   1.358       .  S
C386        C387   1.407       .  A
C386        H391   1.084       .  S
C387        C388   1.406       .  A
C388        F389   1.357       .  S
C393        C394   1.407       .  A
C393        C398   1.397       .  A
C393        H400   1.083       .  S
C394        C395   1.406       .  A
C395        C396   1.402       .  A
C395        F402   1.357       .  S
C396        C397   1.407       .  A
C396        H401   1.083       .  S
C397       C1938   1.478       .  S
C397        C398   1.405       .  A
C398        F399   1.358       .  S
C403        C404   1.396       .  A
C403        C408   1.392       .  A
C403       H1242   1.083       .  S
C404        C405   1.407       .  A
C405        C406   1.412       .  A
C405        F412   1.356       .  S
C406        C407   1.410       .  A
C406        H411   1.085       .  S
C407       C1916   1.487       .  S
C407        C408   1.409       .  A
C408       F1241   1.358       .  S
F409       C1240   1.358       .  S
H410       C1235   1.084       .  S
C413        C414   1.408       .  A
C413        C418   1.393       .  A
C413       H1252   1.083       .  S
C414        C415   1.408       .  A
C415        C416   1.407       .  A
C415        F422   1.357       .  S
C416        C417   1.406       .  A
C416        H421   1.083       .  S
C417        C418   1.398       .  A
C418       F1251   1.356       .  S
F419       C1250   1.356       .  S
H420       C1245   1.083   1_545  S
C423        C424   1.400       .  A
C423        C428   1.402       .  A
C423        H430   1.083       .  S
C424        C425   1.409       .  A
C425        C426   1.398       .  A
C425        F432   1.352       .  S
C426        C427   1.399       .  A
C426        H431   1.083       .  S
C427        C428   1.414       .  A
C428        F429   1.358       .  S
C433        C434   1.408       .  A
C433        C438   1.398       .  A
C433       H1272   1.083       .  S
C434        C435   1.407       .  A
C435        C436   1.399       .  A
C435        F442   1.357       .  S
C436        C437   1.407       .  A
C436        H441   1.084       .  S
C437        C438   1.404       .  A
C438       F1271   1.358       .  S
F439       C1270   1.358       .  S
H440       C1265   1.083   1_545  S
C443        C444   1.409       .  A
C443        C448   1.407       .  A
C443        H450   1.083       .  S
C444        C445   1.402       .  A
C445        C446   1.396       .  A
C445        F452   1.359       .  S
C446        C447   1.409       .  A
C446        H451   1.084       .  S
C447        C448   1.404       .  A
C448        F449   1.356       .  S
C453        C454   1.407       .  A
C453        C458   1.405       .  A
C453        H460   1.083       .  S
C454        C455   1.417       .  A
C455        C456   1.395       .  A
C455        F462   1.358       .  S
C456        C457   1.395       .  A
C456        H461   1.084       .  S
C457        C458   1.406       .  A
C458        F459   1.357       .  S
C463        C464   1.405       .  A
C463        C468   1.399       .  A
C463        H470   1.083       .  S
C464        C465   1.411       .  A
C465        C466   1.404       .  A
C465        F472   1.356       .  S
C466        C467   1.402       .  A
C466        H471   1.083       .  S
C467        C468   1.405       .  A
C468        F469   1.358       .  S
C473        C474   1.402       .  A
C473        C478   1.395       .  A
C473        H480   1.084       .  S
C474       C1085   1.465       .  S
C474       C1307   1.402       .  A
C475        C476   1.404       .  A
C475       C1306   1.402       .  A
C475        F482   1.357       .  S
C476       C1309   1.410       .  A
C476        H481   1.083       .  S
C477        C478   1.410       .  A
C477       C1308   1.410       .  A
C478        F479   1.358       .  S
C483        C484   1.406       .  A
C483        C488   1.399       .  A
C483        H490   1.084       .  S
C484        C485   1.408       .  A
C485        C486   1.399       .  A
C485        F492   1.358       .  S
C486        C487   1.407       .  A
C486        H491   1.083       .  S
C487        C488   1.408       .  A
C488        F489   1.358       .  S
C493        C498   1.393       .  A
C493       C1326   1.403       .  A
C493        H500   1.084       .  S
C494        C495   1.408       .  A
C494       C1325   1.403   1_545  A
C495        C496   1.391       .  A
C495        F502   1.358       .  S
C496       C1329   1.401   1_545  A
C496        H501   1.084       .  S
C497        C498   1.406       .  A
C497       C1328   1.401       .  A
C498        F499   1.358       .  S
C503        C504   1.404       .  A
C503        C508   1.405       .  A
C503        H510   1.083       .  S
C504        C505   1.409   1_554  A
C505        C506   1.399       .  A
C505        F512   1.358       .  S
C506        C507   1.404   1_556  A
C506        H511   1.083       .  S
C507        C508   1.411       .  A
C508        F509   1.357       .  S
C513        C514   1.399       .  A
C513        C518   1.386       .  A
C513        H520   1.084       .  S
C514        C515   1.412       .  A
C515        C516   1.416       .  A
C515        F522   1.356       .  S
C516        C517   1.408       .  A
C516        H521   1.083       .  S
C517        C518   1.411       .  A
C518        F519   1.356   1_556  S
C523        C524   1.409       .  A
C523        C528   1.400       .  A
C523        H530   1.084       .  S
C524        C525   1.401       .  A
C525        C526   1.403       .  A
C525        F532   1.357       .  S
C526        C527   1.411       .  A
C526        H531   1.084       .  S
C527        C528   1.403       .  A
C528        F529   1.358       .  S
C533        C534   1.403       .  A
C533        C538   1.393       .  A
C533        H540   1.084       .  S
C534        C535   1.406       .  A
C535        C536   1.393       .  A
C535        F542   1.358       .  S
C536        C537   1.402       .  A
C536        H541   1.084       .  S
C537        C538   1.404       .  A
C538        F539   1.358       .  S
C543        C544   1.403       .  A
C543        C548   1.399       .  A
C543        H550   1.083       .  S
C544        C545   1.409       .  A
C545        C546   1.396       .  A
C545        F552   1.358       .  S
C546        C547   1.404       .  A
C546        H551   1.083       .  S
C547        C548   1.410       .  A
C548        F549   1.357       .  S
C553        C554   1.404       .  A
C553        C558   1.403       .  A
C553        H560   1.083       .  S
C554        C555   1.402       .  A
C555        C556   1.395       .  A
C555        F562   1.355       .  S
C556        C557   1.407       .  A
C556        H561   1.083       .  S
C557        C558   1.412       .  A
C558        F559   1.357       .  S
C563        C568   1.399       .  A
C563       C2228   1.406   1_455  A
C563        H570   1.084       .  S
C564        C565   1.408       .  A
C564       C2227   1.406       .  A
C565        C566   1.398       .  A
C565        F572   1.358       .  S
C566       C2231   1.407       .  A
C566        H571   1.084       .  S
C567        C568   1.408       .  A
C567       C2230   1.407   1_455  A
C568        F569   1.357       .  S
C573        C574   1.403       .  A
C573        C578   1.392       .  A
C573        H580   1.084       .  S
C574        C575   1.406       .  A
C575        C576   1.392       .  A
C575        F582   1.358       .  S
C576        C577   1.402       .  A
C576        H581   1.084       .  S
C577        C578   1.405       .  A
C578        F579   1.358       .  S
C583        C584   1.411       .  A
C583        C588   1.382       .  A
C583        H590   1.083       .  S
C584        C585   1.407       .  A
C585        C586   1.413       .  A
C585        F592   1.356       .  S
C586        C587   1.410       .  A
C586        H591   1.081       .  S
C587        C588   1.395       .  A
C588        F589   1.359       .  S
C593        C594   1.405       .  A
C593        C598   1.401       .  A
C593        H600   1.084       .  S
C594       C1784   1.473       .  S
C594        C595   1.404       .  A
C595        C596   1.404       .  A
C595        F602   1.357       .  S
C596        C597   1.409       .  A
C596        H601   1.083       .  S
C597        C598   1.407       .  A
C598        F599   1.357       .  S
C603        C604   1.407       .  A
C603        C608   1.403       .  A
C603        H610   1.083       .  S
C604        C605   1.405       .  A
C605        C606   1.397       .  A
C605        F612   1.358       .  S
C606        C607   1.407       .  A
C606        H611   1.084       .  S
C607        C608   1.408       .  A
C608        F609   1.355       .  S
C613        C614   1.399       .  A
C613        C618   1.402       .  A
C613        H620   1.083       .  S
C614        C615   1.410       .  A
C615        C616   1.399       .  A
C615        F622   1.358       .  S
C616        C617   1.401       .  A
C616        H621   1.083       .  S
C617        C618   1.414       .  A
C618        F619   1.358       .  S
C623        C624   1.407       .  A
C623        C628   1.399       .  A
C623        H630   1.083       .  S
C624        C625   1.409       .  A
C625        C626   1.401       .  A
C625        F632   1.358       .  S
C626        C627   1.405       .  A
C626        H631   1.083       .  S
C627        C628   1.407       .  A
C628        F629   1.357       .  S
C633        C634   1.402       .  A
C633        C638   1.394       .  A
C633        H640   1.084       .  S
C634        C635   1.406       .  A
C635        C636   1.394       .  A
C635        F642   1.358       .  S
C636        C637   1.404       .  A
C636        H641   1.083       .  S
C637        C638   1.407       .  A
C638        F639   1.356       .  S
C643        C648   1.403       .  A
C643       C1476   1.411       .  A
C643       H1482   1.084       .  S
C644       C1475   1.411       .  A
C644       C1477   1.404       .  A
C645        C646   1.401       .  A
C645       C1476   1.404   1_565  A
C645        F652   1.358       .  S
C646        C647   1.408   1_565  A
C646        H651   1.084       .  S
C647        C648   1.401       .  A
C648        F649   1.357       .  S
H650       C1475   1.084       .  S
C653        C658   1.397       .  A
C653       C2318   1.406   1_455  A
C653        H660   1.084       .  S
C654        C655   1.406       .  A
C654       C2317   1.406       .  A
C655       C2320   1.399       .  A
C655        F662   1.358       .  S
C656        C657   1.406       .  A
C656       C2319   1.399   1_455  A
C656        H661   1.084       .  S
C657        C658   1.406       .  A
C658        F659   1.358       .  S
C663        C668   1.392   1_465  A
C663       C1496   1.404       .  A
C663        H670   1.084   1_565  S
C664        C665   1.405   1_455  A
C664       C1495   1.404       .  A
C665       C2330   1.393       .  A
C665        F672   1.358       .  S
C666       C2329   1.393       .  A
C666       C1499   1.403       .  A
C666        H671   1.084       .  S
C667       C1498   1.403       .  A
C667       C2332   1.404   1_565  A
C668       C2331   1.404   1_545  A
C668       F2333   1.358       .  S
F669       C2332   1.358       .  S
C673        C674   1.402       .  A
C673        C678   1.395       .  A
C673        H680   1.085       .  S
C674        C675   1.403       .  A
C675        C676   1.404       .  A
C675        F682   1.357       .  S
C676        C677   1.410       .  A
C676        H681   1.083       .  S
C677        C678   1.410       .  A
C678        F679   1.358       .  S
C683        C684   1.409       .  A
C683        C688   1.415       .  A
C683        H690   1.083       .  S
C684        C685   1.412       .  A
C685        C686   1.386       .  A
C685        F692   1.358       .  S
C686        C687   1.398       .  A
C686        H691   1.083       .  S
C687        C688   1.411       .  A
C688        F689   1.356       .  S
C693        C694   1.404       .  A
C693        C698   1.403       .  A
C693        H700   1.083       .  S
C694        C695   1.410       .  A
C695        C696   1.400       .  A
C695        F702   1.358       .  S
C696        C697   1.403       .  A
C696        H701   1.084       .  S
C697        C698   1.411       .  A
C698        F699   1.357       .  S
C703        C704   1.403       .  A
C703        C708   1.400       .  A
C703        H710   1.083       .  S
C704        C705   1.413       .  A
C705        C706   1.398       .  A
C705        F712   1.358       .  S
C706        C707   1.400       .  A
C706        H711   1.084       .  S
C707        C708   1.410       .  A
C708        F709   1.358       .  S
C713        C718   1.389       .  A
C713       C2378   1.404   1_455  A
C713        H720   1.083       .  S
C714        C715   1.405       .  A
C714       C2377   1.404       .  A
C715       C2380   1.390       .  A
C715        F722   1.358       .  S
C716        C717   1.403       .  A
C716       C2379   1.390   1_455  A
C716        H721   1.084       .  S
C717        C718   1.402       .  A
C718        F719   1.358       .  S
C723        C728   1.399       .  A
C723       C2388   1.406   1_455  A
C723        H730   1.083       .  S
C724        C725   1.409       .  A
C724       C2387   1.406       .  A
C725       C2390   1.401       .  A
C725        F732   1.357       .  S
C726        C727   1.406       .  A
C726       C2389   1.401   1_455  A
C726        H731   1.083       .  S
C727        C728   1.408       .  A
C728        F729   1.358       .  S
C733       C1566   1.401       .  A
C733       C1570   1.401       .  A
C733        H740   1.083       .  S
C734        C735   1.403       .  A
C734       C1565   1.401       .  A
C735        C736   1.395       .  A
C735        F742   1.358       .  S
C736        C737   1.407       .  A
C736        H741   1.083       .  S
C737        C738   1.413       .  A
C738       C1565   1.401       .  A
C738       F1571   1.357       .  S
F739       C1570   1.357       .  S
C743        C744   1.408       .  A
C743        C748   1.400       .  A
C743        H750   1.083       .  S
C744        C745   1.413   1_545  A
C745        C746   1.396   1_565  A
C745       F1584   1.358       .  S
C746        C747   1.400       .  A
C746       H1583   1.084   1_545  S
C747        C748   1.404       .  A
C748        F749   1.357       .  S
H751       C1578   1.084       .  S
F752       C1577   1.358       .  S
C753        C754   1.405       .  A
C753        C758   1.398       .  A
C753        H760   1.083       .  S
C754        C755   1.409       .  A
C755        C756   1.398       .  A
C755        F762   1.358       .  S
C756        C757   1.404       .  A
C756        H761   1.083       .  S
C757        C758   1.408       .  A
C758        F759   1.358       .  S
C763        C764   1.402       .  A
C763        C768   1.391       .  A
C763        H770   1.084       .  S
C764        C765   1.404       .  A
C765        C766   1.392       .  A
C765        F772   1.358       .  S
C766        C767   1.404       .  A
C766        H771   1.084       .  S
C767        C768   1.406       .  A
C768        F769   1.358       .  S
C773        C774   1.407       .  A
C773        C778   1.398       .  A
C773        H780   1.084       .  S
C774        C775   1.400       .  A
C775        C776   1.401       .  A
C775        F782   1.357       .  S
C776        C777   1.411       .  A
C776        H781   1.083       .  S
C777        C851   1.477       .  S
C777        C778   1.403       .  A
C778       F1611   1.358       .  S
F779       C1610   1.358       .  S
C783        C788   1.395       .  A
C783       C1616   1.400       .  A
C783        H790   1.084       .  S
C784        C785   1.406       .  A
C784       C1615   1.400       .  A
C785        C786   1.408       .  A
C785        F792   1.357       .  S
C786        C787   1.407       .  A
C786        H791   1.084       .  S
C787       C1620   1.408       .  A
C788       C1619   1.408       .  A
C788        F789   1.358       .  S
C793        C798   1.398       .  A
C793       C1626   1.403       .  A
C793        H800   1.083       .  S
C794       C1674   1.479       .  S
C794        C795   1.409       .  A
C794       C1625   1.403       .  A
C795        C796   1.401       .  A
C795        F802   1.357       .  S
C796        C797   1.403       .  A
C796        H801   1.083       .  S
C797       C1630   1.410       .  A
C798       C1629   1.410       .  A
C798        F799   1.358       .  S
C803        C804   1.400       .  A
C803        C808   1.397       .  A
C803       H1642   1.084       .  S
C804        C805   1.413       .  A
C805        C806   1.403       .  A
C805        F812   1.357       .  S
C806        C807   1.400       .  A
C806        H811   1.083       .  S
C807        C808   1.410       .  A
C808       F1641   1.358   1_545  S
F809       C1640   1.358       .  S
H810       C1635   1.084       .  S
C813        C818   1.399       .  A
C813       C2478   1.404   1_455  A
C813        H820   1.084       .  S
C814        C815   1.409       .  A
C814       C2477   1.404       .  A
C815        C816   1.400       .  A
C815        F822   1.357       .  S
C816       C2481   1.405       .  A
C816        H821   1.084       .  S
C817        C818   1.410       .  A
C817       C2480   1.405   1_455  A
C818        F819   1.358       .  S
C823        C824   1.403       .  A
C823        C828   1.392       .  A
C823        H830   1.084       .  S
C824        C825   1.405       .  A
C825        C826   1.392       .  A
C825        F832   1.358       .  S
C826        C827   1.404       .  A
C826        H831   1.084       .  S
C827        C828   1.406       .  A
C828        F829   1.358       .  S
Fe833       O849   2.055       .  S
Fe833       O839   2.075       .  S
Fe833       O846   2.078       .  S
Fe833       O838   2.028       .  S
Fe833       O844   1.937       .  S
Fe834       O837   2.028       .  S
Fe834       O841   2.106       .  S
Fe834       O845   2.037       .  S
Fe834       O850   2.096       .  S
Fe834       O844   1.916       .  S
Fe835       O853   2.123       .  S
Fe835       O840   2.061       .  S
Fe835       O847   2.075       .  S
Fe835       O836   2.122       .  S
O836        C843   1.283       .  A
O840        C852   1.267       .  A
O841        C854   1.279       .  A
C842        O847   1.271       .  A
C842       C3290   1.479       .  S
C843       C1639   1.477       .  S
O845        C848   1.261       .  A
O846        C848   1.267       .  A
C848       C1656   1.462       .  S
O849        C854   1.273       .  A
C851        O853   1.282       .  A
C852       C1616   1.476       .  S
C854       C1646   1.482       .  S
Fe855       O871   2.041       .  S
Fe855       O861   2.051       .  S
Fe855       O868   2.065       .  S
Fe855       O860   2.010       .  S
Fe855       O866   1.941       .  S
Fe856       O859   2.042       .  S
Fe856       O863   2.108       .  S
Fe856       O867   2.046       .  S
Fe856       O872   2.078       .  S
Fe856       O866   1.927       .  S
Fe857       O875   2.102       .  S
Fe857       O862   2.071       .  S
Fe857       O869   2.099       .  S
Fe857       O858   2.117       .  S
O860        C865   1.261       .  A
O862        C874   1.271       .  A
O863        C876   1.278       .  A
C864        O869   1.273       .  A
C864       C1619   1.481       .  S
C865       C1566   1.463       .  S
O867        C870   1.266       .  A
O868        C870   1.267       .  A
C870       C1599   1.466       .  S
O871        C876   1.266       .  A
C873        O875   1.280       .  A
C873       C1576   1.487       .  S
C874       C1629   1.481       .  S
C876       C1586   1.480       .  S
Fe877       O893   2.049       .  S
Fe877       O883   2.043       .  S
Fe877       O890   2.052       .  S
Fe877       O882   2.005       .  S
Fe877       O888   1.938       .  S
Fe878       O881   2.045       .  S
Fe878       O885   2.116       .  S
Fe878       O889   2.052       .  S
Fe878       O894   2.079       .  S
Fe878       O888   1.917       .  S
Fe879       O897   2.102       .  S
Fe879       O884   2.081       .  S
Fe879       O891   2.121       .  S
Fe879       O880   2.135       .  S
Fe879       O888   1.932       .  S
O880        C887   1.287       .  A
O881        C895   1.272       .  A
O882        C887   1.263       .  A
O883        C886   1.256       .  A
O884        C896   1.275       .  A
O885        C898   1.282       .  A
C886        O891   1.272       .  A
C886       C1516   1.490       .  S
C887       C1506   1.466       .  S
O889        C892   1.266       .  A
O890        C892   1.263       .  A
C892       C1546   1.462       .  S
O893        C898   1.270       .  A
O894        C896   1.273       .  A
C895        O897   1.280       .  A
C895       C1536   1.483       .  S
C896       C1526   1.485       .  S
C898       C1556   1.484       .  S
Fe899       O915   2.058       .  S
Fe899       O905   2.078       .  S
Fe899       O912   2.084       .  S
Fe899       O904   2.032       .  S
Fe899       O910   1.934       .  S
Fe900       O903   2.032       .  S
Fe900       O907   2.089       .  S
Fe900       O911   2.036       .  S
Fe900       O910   1.911       .  S
Fe901       O919   2.125       .  S
Fe901       O913   2.082       .  S
Fe901       O902   2.123       .  S
Fe901       O910   1.937       .  S
O902        C909   1.282       .  A
O903        C917   1.264       .  A
O904        C909   1.266       .  A
O905        C908   1.270       .  A
O906        C918   1.270   1_545  A
O907        C920   1.275       .  A
C908        O913   1.274       .  A
C908       C1529   1.485       .  S
C909       C1479   1.477       .  S
O911        C914   1.263       .  A
O912        C914   1.270       .  A
C914       C1499   1.462       .  S
O915        C920   1.271       .  A
O916        C918   1.273       .  A
C917        O919   1.282       .  A
C917       C1636   1.478       .  S
C918       C1519   1.482       .  S
C920       C1486   1.478       .  S
Fe921       O937   2.058       .  S
Fe921       O927   2.087       .  S
Fe921       O934   2.103       .  S
Fe921       O926   2.028       .  S
Fe921       O932   1.926       .  S
Fe922       O925   2.009       .  S
Fe922       O929   2.102       .  S
Fe922       O933   2.025       .  S
Fe922       O938   2.103       .  S
Fe922       O932   1.892       .  S
Fe923       O941   2.150       .  S
Fe923       O928   2.059       .  S
Fe923       O935   2.070       .  S
Fe923       O924   2.125       .  S
Fe923       O932   1.933       .  S
O924        C931   1.284       .  A
O925        C939   1.257       .  A
O926        C931   1.268       .  A
O927        C930   1.273       .  A
O928        C940   1.268       .  A
O929        C942   1.277       .  A
C930        O935   1.273       .  A
C930       C1436   1.481       .  S
C931       C1446   1.474       .  S
O933        C936   1.260       .  A
O934        C936   1.274       .  A
C936       C1466   1.462       .  S
O937        C942   1.271       .  A
O938        C940   1.276       .  A
C939        O941   1.284       .  A
C939       C1416   1.485       .  S
C940       C1429   1.487       .  S
C942       C1456   1.485       .  S
Fe943       O959   2.043       .  S
Fe943       O949   2.045       .  S
Fe943       O956   2.068       .  S
Fe943       O948   2.015       .  S
Fe943       O954   1.952       .  S
Fe944       O947   2.045       .  S
Fe944       O951   2.103       .  S
Fe944       O955   2.047       .  S
Fe944       O960   2.073       .  S
Fe944       O954   1.934       .  S
Fe945       O963   2.109       .  S
Fe945       O950   2.078       .  S
Fe945       O957   2.101       .  S
Fe945       O946   2.116       .  S
Fe945       O954   1.942       .  S
O946        C953   1.283       .  A
O947        C961   1.273       .  A
O948        C953   1.262       .  A
O949        C952   1.262       .  A
O950        C962   1.270       .  A
O951        C964   1.275       .  A
C952        O957   1.273       .  A
C952       C3090   1.473       .  S
C953       C1386   1.469       .  S
O955        C958   1.268       .  A
O956        C958   1.269       .  A
C958       C1406   1.466       .  S
O959        C964   1.265       .  A
O960        C962   1.269       .  A
C961        O963   1.282       .  A
C961       C1509   1.488       .  S
C962       C1439   1.486       .  S
C964       C1396   1.481       .  S
Fe965       O981   2.059       .  S
Fe965       O971   2.081       .  S
Fe965       O978   2.087       .  S
Fe965       O970   2.033       .  S
Fe965       O976   1.934       .  S
Fe966       O969   2.031       .  S
Fe966       O973   2.089       .  S
Fe966       O977   2.037   1_556  S
Fe966       O982   2.080       .  S
Fe966       O976   1.909   1_556  S
Fe967       O985   2.129       .  S
Fe967       O972   2.078       .  S
Fe967       O979   2.080       .  S
Fe967       O968   2.121   1_556  S
Fe967       O976   1.937   1_556  S
O968        C975   1.282       .  A
O969        C983   1.265       .  A
O970        C975   1.267       .  A
O971        C974   1.271       .  A
O972        C984   1.269       .  A
O973        C986   1.275   1_556  A
C974        O979   1.274   1_554  A
C974       C1339   1.486       .  S
C975       C1356   1.478       .  S
O977        C980   1.263       .  A
O978        C980   1.271       .  A
C980       C1369   1.461       .  S
O981        C986   1.271       .  A
O982        C984   1.272       .  A
C983        O985   1.284       .  A
C983       C1449   1.482       .  S
C984       C1346   1.485       .  S
C986       C1376   1.478       .  S
Fe987      O1003   2.044   1_554  S
Fe987       O993   2.044       .  S
Fe987      O1000   2.058       .  S
Fe987       O992   2.002       .  S
Fe987       O998   1.938       .  S
Fe988       O991   2.047       .  S
Fe988       O995   2.113       .  S
Fe988       O999   2.058   1_556  S
Fe988       O998   1.924   1_556  S
Fe989      O1007   2.102   1_554  S
Fe989      O1001   2.119   1_554  S
Fe989       O990   2.126       .  S
Fe989       O998   1.935       .  S
O990        C997   1.285       .  A
O991       C1005   1.272       .  A
O992        C997   1.263       .  A
O993        C996   1.258       .  A
O994       C1006   1.274   1_545  A
O995       C1008   1.280       .  A
C996       O1001   1.273   1_554  A
C996       C1349   1.489   1_554  S
C997       C1579   1.462       .  S
O999       C1002   1.267       .  A
O1000      C1002   1.265       .  A
C1002      C1326   1.470       .  S
O1003      C1008   1.268       .  A
O1004      C1006   1.272   1_556  A
C1005      O1007   1.281       .  A
C1005      C1309   1.486       .  S
C1006      C1336   1.484       .  S
C1008      C1319   1.483       .  S
Fe1009     O1025   2.051       .  S
Fe1009     O1015   2.061       .  S
Fe1009     O1022   2.067       .  S
Fe1009     O1014   2.025       .  S
Fe1009     O1020   1.927       .  S
Fe1010     O1013   2.034       .  S
Fe1010     O1017   2.101       .  S
Fe1010     O1021   2.039       .  S
Fe1010     O1026   2.091       .  S
Fe1010     O1020   1.906       .  S
Fe1011     O1029   2.123       .  S
Fe1011     O1016   2.070       .  S
Fe1011     O1023   2.097       .  S
Fe1011     O1012   2.123       .  S
Fe1011     O1020   1.930       .  S
O1012      C1019   1.283       .  A
O1013      C1027   1.263       .  A
O1014      C1019   1.266       .  A
O1015      C1018   1.265       .  A
O1016      C1028   1.272       .  A
O1017      C1030   1.278       .  A
C1018      O1023   1.275       .  A
C1018      C1286   1.490       .  S
C1019      C1419   1.466       .  S
O1021      C1024   1.262       .  A
O1022      C1024   1.265       .  A
C1024      C1549   1.455       .  S
O1025      C1030   1.272       .  A
O1026      C1028   1.276       .  A
C1027      O1029   1.281       .  A
C1027      C1276   1.473       .  S
C1028      C1296   1.486       .  S
C1030      C1489   1.476       .  S
Fe1031     O1047   2.044       .  S
Fe1031     O1037   2.052       .  S
Fe1031     O1044   2.074       .  S
Fe1031     O1036   2.019       .  S
Fe1031     O1042   1.952       .  S
Fe1032     O1035   2.048       .  S
Fe1032     O1039   2.105       .  S
Fe1032     O1043   2.044       .  S
Fe1032     O1048   2.076       .  S
Fe1032     O1042   1.941       .  S
Fe1033     O1051   2.098       .  S
Fe1033     O1038   2.067       .  S
Fe1033     O1045   2.092       .  S
Fe1033     O1034   2.106       .  S
Fe1033     O1042   1.946       .  S
O1034      C1041   1.280       .  A
O1035      C1049   1.274       .  A
O1036      C1041   1.263       .  A
O1037      C1040   1.264       .  A
O1039      C1052   1.275       .  A
C1040      O1045   1.272       .  A
C1040      C1299   1.472       .  S
C1041      C1269   1.473       .  S
O1043      C1046   1.268       .  A
O1044      C1046   1.270       .  A
C1046      C1496   1.466       .  S
O1047      C1052   1.264       .  A
C1049      O1051   1.280       .  A
C1049      C1569   1.487       .  S
C1050      C1289   1.470       .  S
C1052      C1559   1.483       .  S
Fe1053     O1069   2.052       .  S
Fe1053     O1066   2.075       .  S
Fe1053     O1064   1.932       .  S
Fe1054     O1057   2.034       .  S
Fe1054     O1061   2.111       .  S
Fe1054     O1065   2.038       .  S
Fe1054     O1070   2.097       .  S
Fe1054     O1064   1.916       .  S
Fe1055     O1073   2.128       .  S
Fe1055     O1060   2.068       .  S
Fe1055     O1067   2.088       .  S
Fe1055     O1056   2.130       .  S
O1056      C1063   1.284       .  A
O1058      C1063   1.267       .  A
O1059      C1062   1.268       .  A
O1060      C1072   1.270       .  A
O1061      C1074   1.280       .  A
C1062      O1067   1.273       .  A
C1062      C1246   1.483       .  S
C1063      C1256   1.475       .  S
O1065      C1068   1.261       .  A
O1066      C1068   1.267       .  A
C1068      C1409   1.461       .  S
O1069      C1074   1.272       .  A
C1071      O1073   1.283       .  A
C1071      C1476   1.482   1_565  S
C1072      C1236   1.477       .  S
C1074      C1459   1.481       .  S
Fe1075     O1091   2.040       .  S
Fe1075     O1088   2.065       .  S
Fe1075     O1080   2.012       .  S
Fe1075     O1086   1.947       .  S
Fe1076     O1083   2.114       .  S
Fe1076     O1087   2.055       .  S
Fe1076     O1086   1.931       .  S
Fe1077     O1095   2.089       .  S
Fe1077     O1082   2.073       .  S
Fe1077     O1089   2.103       .  S
Fe1077     O1078   2.123       .  S
O1078      C1085   1.283   1_565  A
O1079      C1093   1.274   1_545  A
O1081      C1084   1.262   1_545  A
O1082      C1094   1.271       .  A
O1083      C1096   1.281       .  A
C1084      O1089   1.271       .  A
C1084      C2903   1.487   1_455  S
O1087      C1090   1.265       .  A
O1088      C1090   1.265       .  A
C1090      C1469   1.472       .  S
O1091      C1096   1.268       .  A
O1092      C1094   1.270   1_545  A
C1093      O1095   1.278       .  A
C1093      C1266   1.484       .  S
C1094      C1249   1.470       .  S
C1096      C1399   1.482       .  S
Fe1097     O1113   2.058       .  S
Fe1097     O1103   2.072       .  S
Fe1097     O1110   2.076       .  S
Fe1097     O1102   2.028       .  S
Fe1097     O1108   1.941       .  S
Fe1098     O1101   2.028       .  S
Fe1098     O1105   2.104       .  S
Fe1098     O1109   2.037       .  S
Fe1098     O1114   2.092       .  S
Fe1098     O1108   1.914       .  S
Fe1099     O1117   2.128       .  S
Fe1099     O1104   2.061       .  S
Fe1099     O1111   2.075       .  S
Fe1099     O1100   2.127       .  S
Fe1099     O1108   1.934       .  S
O1100      C1107   1.284       .  A
O1101      C1115   1.265       .  A
O1102      C1107   1.268       .  A
O1103      C1106   1.266       .  A
O1104      C1116   1.267       .  A
O1105      C1118   1.279       .  A
C1106      O1111   1.270       .  A
C1106      C2893   1.478   1_455  S
C1107      C1279   1.484       .  S
O1109      C1112   1.261       .  A
O1110      C1112   1.266       .  A
C1112      C1596   1.459       .  S
O1113      C1118   1.274       .  A
O1114      C1116   1.273       .  A
C1115      O1117   1.283       .  A
C1115      C1359   1.478       .  S
C1116      C1219   1.480       .  S
C1118      C1649   1.483       .  S
Fe1119     O1135   2.042       .  S
Fe1119     O1125   2.049       .  S
Fe1119     O1132   2.072       .  S
Fe1119     O1124   2.017       .  S
Fe1119     O1130   1.949       .  S
Fe1120     O1123   2.042       .  S
Fe1120     O1127   2.102       .  S
Fe1120     O1131   2.044       .  S
Fe1120     O1136   2.071       .  S
Fe1120     O1130   1.938       .  S
Fe1121     O1139   2.103       .  S
Fe1121     O1126   2.072       .  S
Fe1121     O1133   2.092       .  S
Fe1121     O1122   2.113       .  S
Fe1121     O1130   1.941       .  S
O1122      C1129   1.281       .  A
O1123      C1137   1.273       .  A
O1124      C1129   1.263       .  A
O1125      C1128   1.263       .  A
O1126      C1138   1.269       .  A
O1127      C1140   1.274       .  A
C1128      O1133   1.272       .  A
C1128      C1216   1.471       .  S
C1129      C1539   1.474       .  S
O1131      C1134   1.268       .  A
O1132      C1134   1.270       .  A
C1134      C1659   1.467       .  S
O1135      C1140   1.263       .  A
O1136      C1138   1.269       .  A
C1137      O1139   1.282       .  A
C1137      C1206   1.481       .  S
C1138      C1226   1.482       .  S
C1140      C1589   1.479       .  S
Fe1141     O1157   2.042   1_554  S
Fe1141     O1147   2.050       .  S
Fe1141     O1154   2.074       .  S
Fe1141     O1146   2.015       .  S
Fe1141     O1152   1.947       .  S
Fe1142     O1145   2.048       .  S
Fe1142     O1149   2.106       .  S
Fe1142     O1153   2.046   1_556  S
Fe1142     O1158   2.074       .  S
Fe1142     O1152   1.937   1_556  S
Fe1143     O1161   2.101   1_554  S
Fe1143     O1148   2.072       .  S
Fe1143     O1155   2.092   1_554  S
Fe1143     O1144   2.109       .  S
Fe1143     O1152   1.940       .  S
O1144      C1151   1.280       .  A
O1145      C1159   1.275       .  A
O1146      C1151   1.262       .  A
O1147      C1150   1.264       .  A
O1148      C1160   1.270       .  A
O1149      C1162   1.275       .  A
C1150      O1155   1.272   1_554  A
C1150      C1186   1.472   1_554  S
C1151      C1209   1.469       .  S
O1153      C1156   1.268       .  A
O1154      C1156   1.271       .  A
C1156      C1366   1.467       .  S
O1157      C1162   1.264       .  A
O1158      C1160   1.269   1_556  A
C1159      O1161   1.280       .  A
C1159      C1389   1.488       .  S
C1160      C1196   1.480       .  S
C1162      C1316   1.482       .  S
Fe1163     O1179   2.052       .  S
Fe1163     O1169   2.074       .  S
Fe1163     O1176   2.077       .  S
Fe1163     O1168   2.029       .  S
Fe1163     O1174   1.942       .  S
Fe1164     O1167   2.030       .  S
Fe1164     O1171   2.105       .  S
Fe1164     O1175   2.040   1_556  S
Fe1164     O1180   2.087       .  S
Fe1164     O1174   1.916   1_556  S
Fe1165     O1183   2.121       .  S
Fe1165     O1170   2.063       .  S
Fe1165     O1177   2.073       .  S
Fe1165     O1166   2.121   1_556  S
Fe1165     O1174   1.932   1_556  S
O1166      C1173   1.283       .  A
O1167      C1181   1.266       .  A
O1168      C1173   1.269       .  A
O1169      C1172   1.266       .  A
O1171      C1184   1.280   1_556  A
C1172      O1177   1.269   1_554  A
C1172      C1199   1.482       .  S
C1173      C1606   1.473       .  S
O1175      C1178   1.259       .  A
O1176      C1178   1.264       .  A
C1178      C1329   1.462       .  S
O1179      C1184   1.275       .  A
C1181      O1183   1.283       .  A
C1181      C1259   1.481       .  S
C1182      C1189   1.475       .  S
C1184      C1379   1.480       .  S
C1185      C1186   1.405       .  A
C1185      C1190   1.403       .  A
C1185      H1192   1.083       .  S
C1186      C1187   1.405   1_556  A
C1187      C1188   1.399       .  A
C1187      F1194   1.358       .  S
C1188      C1189   1.404   1_554  A
C1188      H1193   1.083       .  S
C1189      C1190   1.404       .  A
C1190      F1191   1.357       .  S
C1195      C1196   1.403       .  A
C1195      C1200   1.401       .  A
C1195      H1202   1.083       .  S
C1196      C1197   1.409   1_554  A
C1197      C1198   1.398       .  A
C1197      F1204   1.358       .  S
C1198      C1199   1.403   1_556  A
C1198      H1203   1.083       .  S
C1199      C1200   1.411       .  A
C1200      F1201   1.357       .  S
C1205      C1206   1.403       .  A
C1205      C1210   1.399       .  A
C1205      H1212   1.083       .  S
C1206      C1207   1.413       .  A
C1207      C1208   1.397       .  A
C1207      F1214   1.358       .  S
C1208      C1209   1.400       .  A
C1208      H1213   1.084       .  S
C1209      C1210   1.408       .  A
C1210      F1211   1.358       .  S
C1215      C1216   1.404       .  A
C1215      C1220   1.401       .  A
C1215      H1222   1.084       .  S
C1216      C1217   1.404       .  A
C1217      C1218   1.401       .  A
C1217      F1224   1.358       .  S
C1218      C1219   1.407       .  A
C1218      H1223   1.084       .  S
C1219      C1220   1.406       .  A
C1220      F1221   1.357       .  S
C1225      C1226   1.407       .  A
C1225      C1230   1.397       .  A
C1225      H1232   1.083       .  S
C1226      C1227   1.406       .  A
C1227      C1228   1.402       .  A
C1227      F1234   1.357       .  S
C1228      C1229   1.407       .  A
C1228      H1233   1.083       .  S
C1229      C2770   1.478       .  S
C1229      C1230   1.405       .  A
C1230      F1231   1.358       .  S
C1235      C1236   1.396       .  A
C1235      C1240   1.392       .  A
C1236      C1237   1.407       .  A
C1237      C1238   1.412       .  A
C1237      F1244   1.356       .  S
C1238      C1239   1.410       .  A
C1238      H1243   1.085       .  S
C1239      C2748   1.487       .  S
C1239      C1240   1.409       .  A
C1245      C1246   1.408       .  A
C1245      C1250   1.393   1_565  A
C1246      C1247   1.408       .  A
C1247      C1248   1.407       .  A
C1247      F1254   1.357       .  S
C1248      C1249   1.406       .  A
C1248      H1253   1.083       .  S
C1249      C1250   1.398   1_565  A
C1255      C1256   1.400       .  A
C1255      C1260   1.402       .  A
C1255      H1262   1.083       .  S
C1256      C1257   1.409       .  A
C1257      C1258   1.398       .  A
C1257      F1264   1.352       .  S
C1258      C1259   1.399       .  A
C1258      H1263   1.083       .  S
C1259      C1260   1.414       .  A
C1260      F1261   1.358       .  S
C1265      C1266   1.408       .  A
C1265      C1270   1.398       .  A
C1266      C1267   1.407       .  A
C1267      C1268   1.399       .  A
C1267      F1274   1.357       .  S
C1268      C1269   1.407       .  A
C1268      H1273   1.084       .  S
C1269      C1270   1.404       .  A
C1275      C1276   1.409       .  A
C1275      C1280   1.407       .  A
C1275      H1282   1.083       .  S
C1276      C1277   1.402       .  A
C1277      C1278   1.396       .  A
C1277      F1284   1.359       .  S
C1278      C1279   1.409       .  A
C1278      H1283   1.084       .  S
C1279      C1280   1.404       .  A
C1280      F1281   1.356       .  S
C1285      C1286   1.407       .  A
C1285      C1290   1.405       .  A
C1285      H1292   1.083       .  S
C1286      C1287   1.417       .  A
C1287      C1288   1.395       .  A
C1287      F1294   1.358       .  S
C1288      C1289   1.395       .  A
C1288      H1293   1.084       .  S
C1289      C1290   1.406       .  A
C1290      F1291   1.357       .  S
C1295      C1296   1.405       .  A
C1295      C1300   1.399       .  A
C1295      H1302   1.083       .  S
C1296      C1297   1.411       .  A
C1297      C1298   1.404       .  A
C1297      F1304   1.356       .  S
C1298      C1299   1.402       .  A
C1298      H1303   1.083       .  S
C1299      C1300   1.405       .  A
C1300      F1301   1.358       .  S
C1305      C1306   1.402       .  A
C1305      C1310   1.395       .  A
C1305      H1312   1.084       .  S
C1307      C1308   1.404       .  A
C1307      F1314   1.357   1_545  S
C1308      H1313   1.083       .  S
C1309      C1310   1.410       .  A
C1310      F1311   1.358       .  S
C1315      C1316   1.406       .  A
C1315      C1320   1.399       .  A
C1315      H1322   1.084       .  S
C1316      C1317   1.408       .  A
C1317      C1318   1.399       .  A
C1317      F1324   1.358       .  S
C1318      C1319   1.407       .  A
C1318      H1323   1.083       .  S
C1319      C1320   1.408       .  A
C1320      F1321   1.358       .  S
C1325      C1330   1.393       .  A
C1325      H1332   1.084       .  S
C1326      C1327   1.408       .  A
C1327      C1328   1.391       .  A
C1327      F1334   1.358       .  S
C1328      H1333   1.084       .  S
C1329      C1330   1.406       .  A
C1330      F1331   1.358       .  S
C1335      C1336   1.404       .  A
C1335      C1340   1.405       .  A
C1335      H1342   1.083       .  S
C1336      C1337   1.409   1_554  A
C1337      C1338   1.399       .  A
C1337      F1344   1.358       .  S
C1338      C1339   1.404   1_556  A
C1338      H1343   1.083       .  S
C1339      C1340   1.411       .  A
C1340      F1341   1.357       .  S
C1345      C1346   1.399       .  A
C1345      C1350   1.386       .  A
C1345      H1352   1.084       .  S
C1346      C1347   1.412       .  A
C1347      C1348   1.416       .  A
C1347      F1354   1.356       .  S
C1348      C1349   1.408       .  A
C1348      H1353   1.083       .  S
C1349      C1350   1.411       .  A
C1350      F1351   1.356   1_556  S
C1355      C1356   1.409       .  A
C1355      C1360   1.400       .  A
C1355      H1362   1.084       .  S
C1356      C1357   1.401       .  A
C1357      C1358   1.403       .  A
C1357      F1364   1.357       .  S
C1358      C1359   1.411       .  A
C1358      H1363   1.084       .  S
C1359      C1360   1.403       .  A
C1360      F1361   1.358       .  S
C1365      C1366   1.403       .  A
C1365      C1370   1.393       .  A
C1365      H1372   1.084       .  S
C1366      C1367   1.406       .  A
C1367      C1368   1.393       .  A
C1367      F1374   1.358       .  S
C1368      C1369   1.402       .  A
C1368      H1373   1.084       .  S
C1369      C1370   1.404       .  A
C1370      F1371   1.358       .  S
C1375      C1376   1.403       .  A
C1375      C1380   1.399       .  A
C1375      H1382   1.083       .  S
C1376      C1377   1.409       .  A
C1377      C1378   1.396       .  A
C1377      F1384   1.358       .  S
C1378      C1379   1.404       .  A
C1378      H1383   1.083       .  S
C1379      C1380   1.410       .  A
C1380      F1381   1.357       .  S
C1385      C1386   1.404       .  A
C1385      C1390   1.403       .  A
C1385      H1392   1.083       .  S
C1386      C1387   1.402       .  A
C1387      C1388   1.395       .  A
C1387      F1394   1.355       .  S
C1388      C1389   1.407       .  A
C1388      H1393   1.083       .  S
C1389      C1390   1.412       .  A
C1390      F1391   1.357       .  S
C1395      C3060   1.406   1_455  A
C1395      C1400   1.399       .  A
C1395      H1402   1.084       .  S
C1396      C3059   1.406       .  A
C1396      C1397   1.408       .  A
C1397      C1398   1.398       .  A
C1397      F1404   1.358       .  S
C1398      C3063   1.407       .  A
C1398      H1403   1.084       .  S
C1399      C3062   1.407   1_455  A
C1399      C1400   1.408       .  A
C1400      F1401   1.357       .  S
C1405      C1406   1.403       .  A
C1405      C1410   1.392       .  A
C1405      H1412   1.084       .  S
C1406      C1407   1.406       .  A
C1407      C1408   1.392       .  A
C1407      F1414   1.358       .  S
C1408      C1409   1.402       .  A
C1408      H1413   1.084       .  S
C1409      C1410   1.405       .  A
C1410      F1411   1.358       .  S
C1415      C1416   1.411       .  A
C1415      C1420   1.382       .  A
C1415      H1422   1.083       .  S
C1416      C1417   1.407       .  A
C1417      C1418   1.413       .  A
C1417      F1424   1.356       .  S
C1418      C1419   1.410       .  A
C1418      H1423   1.081       .  S
C1419      C1420   1.395       .  A
C1420      F1421   1.359       .  S
C1425      C1426   1.405       .  A
C1425      C1430   1.401       .  A
C1425      H1432   1.084       .  S
C1426      C2616   1.473       .  S
C1426      C1427   1.404       .  A
C1427      C1428   1.404       .  A
C1427      F1434   1.357       .  S
C1428      C1429   1.409       .  A
C1428      H1433   1.083       .  S
C1429      C1430   1.407       .  A
C1430      F1431   1.357       .  S
C1435      C1436   1.407       .  A
C1435      C1440   1.403       .  A
C1435      H1442   1.083       .  S
C1436      C1437   1.405       .  A
C1437      C1438   1.397       .  A
C1437      F1444   1.358       .  S
C1438      C1439   1.407       .  A
C1438      H1443   1.084       .  S
C1439      C1440   1.408       .  A
C1440      F1441   1.355       .  S
C1445      C1446   1.399       .  A
C1445      C1450   1.402       .  A
C1445      H1452   1.083       .  S
C1446      C1447   1.410       .  A
C1447      C1448   1.399       .  A
C1447      F1454   1.358       .  S
C1448      C1449   1.401       .  A
C1448      H1453   1.083       .  S
C1449      C1450   1.414       .  A
C1450      F1451   1.358       .  S
C1455      C1456   1.407       .  A
C1455      C1460   1.399       .  A
C1455      H1462   1.083       .  S
C1456      C1457   1.409       .  A
C1457      C1458   1.401       .  A
C1457      F1464   1.358       .  S
C1458      C1459   1.405       .  A
C1458      H1463   1.083       .  S
C1459      C1460   1.407       .  A
C1460      F1461   1.357       .  S
C1465      C1466   1.402       .  A
C1465      C1470   1.394       .  A
C1465      H1472   1.084       .  S
C1466      C1467   1.406       .  A
C1467      C1468   1.394       .  A
C1467      F1474   1.358       .  S
C1468      C1469   1.404       .  A
C1468      H1473   1.083       .  S
C1469      C1470   1.407       .  A
C1470      F1471   1.356       .  S
C1475      C1480   1.403       .  A
C1477      C1478   1.401       .  A
C1477      F1484   1.358       .  S
C1478      C1479   1.408       .  A
C1478      H1483   1.084       .  S
C1479      C1480   1.401       .  A
C1480      F1481   1.357       .  S
C1485      C3150   1.406   1_455  A
C1485      C1490   1.397       .  A
C1485      H1492   1.084       .  S
C1486      C3149   1.406       .  A
C1486      C1487   1.406       .  A
C1487      C3152   1.399       .  A
C1487      F1494   1.358       .  S
C1488      C3151   1.399   1_455  A
C1488      C1489   1.406       .  A
C1488      H1493   1.084       .  S
C1489      C1490   1.406       .  A
C1490      F1491   1.358       .  S
C1495      C1500   1.392   1_455  A
C1495      H1502   1.084       .  S
C1496      C1497   1.405   1_455  A
C1497      C3162   1.393       .  A
C1497      F1504   1.358       .  S
C1498      C3161   1.393       .  A
C1498      H1503   1.084       .  S
C1499      C3164   1.404       .  A
C1500      C3163   1.404       .  A
C1500      F3165   1.358       .  S
F1501      C3164   1.358       .  S
C1505      C1506   1.402       .  A
C1505      C1510   1.395       .  A
C1505      H1512   1.085       .  S
C1506      C1507   1.403       .  A
C1507      C1508   1.404       .  A
C1507      F1514   1.357       .  S
C1508      C1509   1.410       .  A
C1508      H1513   1.083       .  S
C1509      C1510   1.410       .  A
C1510      F1511   1.358       .  S
C1515      C1516   1.409       .  A
C1515      C1520   1.415       .  A
C1515      H1522   1.083       .  S
C1516      C1517   1.412       .  A
C1517      C1518   1.386       .  A
C1517      F1524   1.358       .  S
C1518      C1519   1.398       .  A
C1518      H1523   1.083       .  S
C1519      C1520   1.411       .  A
C1520      F1521   1.356       .  S
C1525      C1526   1.404       .  A
C1525      C1530   1.403       .  A
C1525      H1532   1.083       .  S
C1526      C1527   1.410       .  A
C1527      C1528   1.400       .  A
C1527      F1534   1.358       .  S
C1528      C1529   1.403       .  A
C1528      H1533   1.084       .  S
C1529      C1530   1.411       .  A
C1530      F1531   1.357       .  S
C1535      C1536   1.403       .  A
C1535      C1540   1.400       .  A
C1535      H1542   1.083       .  S
C1536      C1537   1.413       .  A
C1537      C1538   1.398       .  A
C1537      F1544   1.358       .  S
C1538      C1539   1.400       .  A
C1538      H1543   1.084       .  S
C1539      C1540   1.410       .  A
C1540      F1541   1.358       .  S
C1545      C3210   1.404   1_455  A
C1545      C1550   1.389       .  A
C1545      H1552   1.083       .  S
C1546      C3209   1.404       .  A
C1546      C1547   1.405       .  A
C1547      C3212   1.390       .  A
C1547      F1554   1.358       .  S
C1548      C3211   1.390   1_455  A
C1548      C1549   1.403       .  A
C1548      H1553   1.084       .  S
C1549      C1550   1.402       .  A
C1550      F1551   1.358       .  S
C1555      C3220   1.406   1_455  A
C1555      C1560   1.399       .  A
C1555      H1562   1.083       .  S
C1556      C3219   1.406       .  A
C1556      C1557   1.409       .  A
C1557      C3222   1.401       .  A
C1557      F1564   1.357       .  S
C1558      C3221   1.401   1_455  A
C1558      C1559   1.406       .  A
C1558      H1563   1.083       .  S
C1559      C1560   1.408       .  A
C1560      F1561   1.358       .  S
C1565      H1572   1.083       .  S
C1566      C1567   1.403       .  A
C1567      C1568   1.395       .  A
C1567      F1574   1.358       .  S
C1568      C1569   1.407       .  A
C1568      H1573   1.083       .  S
C1569      C1570   1.413       .  A
C1575      C1576   1.408       .  A
C1575      C1580   1.400       .  A
C1575      H1582   1.083       .  S
C1576      C1577   1.413       .  A
C1577      C1578   1.396       .  A
C1578      C1579   1.400       .  A
C1579      C1580   1.404       .  A
C1580      F1581   1.357       .  S
C1585      C1586   1.405       .  A
C1585      C1590   1.398       .  A
C1585      H1592   1.083       .  S
C1586      C1587   1.409       .  A
C1587      C1588   1.398       .  A
C1587      F1594   1.358       .  S
C1588      C1589   1.404       .  A
C1588      H1593   1.083       .  S
C1589      C1590   1.408       .  A
C1590      F1591   1.358       .  S
C1595      C1596   1.402       .  A
C1595      C1600   1.391       .  A
C1595      H1602   1.084       .  S
C1596      C1597   1.404       .  A
C1597      C1598   1.392       .  A
C1597      F1604   1.358       .  S
C1598      C1599   1.404       .  A
C1598      H1603   1.084       .  S
C1599      C1600   1.406       .  A
C1600      F1601   1.358       .  S
C1605      C1606   1.407       .  A
C1605      C1610   1.398   1_565  A
C1605      H1612   1.084   1_565  S
C1606      C1607   1.400       .  A
C1607      C1608   1.401       .  A
C1607      F1614   1.357       .  S
C1608      C1609   1.411       .  A
C1608      H1613   1.083       .  S
C1609      C1610   1.403   1_565  A
C1615      C1620   1.395       .  A
C1615      H1622   1.084       .  S
C1616      C1617   1.406       .  A
C1617      C1618   1.408       .  A
C1617      F1624   1.357       .  S
C1618      C1619   1.407       .  A
C1618      H1623   1.084       .  S
C1620      F1621   1.358       .  S
C1625      C1630   1.398       .  A
C1625      H1632   1.083       .  S
C1626      C2506   1.479       .  S
C1626      C1627   1.409       .  A
C1627      C1628   1.401       .  A
C1627      F1634   1.357       .  S
C1628      C1629   1.403       .  A
C1628      H1633   1.083       .  S
C1630      F1631   1.358   1_545  S
C1635      C1636   1.400       .  A
C1635      C1640   1.397       .  A
C1636      C1637   1.413       .  A
C1637      C1638   1.403       .  A
C1637      F1644   1.357       .  S
C1638      C1639   1.400       .  A
C1638      H1643   1.083       .  S
C1639      C1640   1.410       .  A
C1645      C3310   1.404   1_455  A
C1645      C1650   1.399       .  A
C1645      H1652   1.084       .  S
C1646      C3309   1.404       .  A
C1646      C1647   1.409       .  A
C1647      C1648   1.400       .  A
C1647      F1654   1.357       .  S
C1648      C3313   1.405       .  A
C1648      H1653   1.084       .  S
C1649      C3312   1.405   1_455  A
C1649      C1650   1.410       .  A
C1650      F1651   1.358       .  S
C1655      C1656   1.403       .  A
C1655      C1660   1.392       .  A
C1655      H1662   1.084       .  S
C1656      C1657   1.405       .  A
C1657      C1658   1.392       .  A
C1657      F1664   1.358       .  S
C1658      C1659   1.404       .  A
C1658      H1663   1.084       .  S
C1659      C1660   1.406       .  A
C1660      F1661   1.358       .  S
Fe1665     O1681   2.055       .  S
Fe1665     O1671   2.075       .  S
Fe1665     O1678   2.078       .  S
Fe1665     O1670   2.028       .  S
Fe1665     O1676   1.937       .  S
Fe1666     O1669   2.028       .  S
Fe1666     O1673   2.106       .  S
Fe1666     O1677   2.037       .  S
Fe1666     O1682   2.096       .  S
Fe1666     O1676   1.916       .  S
Fe1667     O1685   2.123       .  S
Fe1667     O1672   2.061       .  S
Fe1667     O1679   2.075       .  S
Fe1667     O1668   2.122       .  S
Fe1667     O2508   1.934   1_545  S
O1668      C1675   1.283       .  A
O1669      C2515   1.265       .  A
O1670      C2507   1.267       .  A
O1671      C2506   1.268   1_655  A
O1672      C1684   1.267       .  A
O1673      C1686   1.279       .  A
C1674      O2503   1.268   1_445  A
C1674      O1679   1.271   1_455  A
C1675      O2502   1.267   1_545  A
C1675      C2471   1.477       .  S
O1676     Fe2499   1.934       .  S
O1677      C1680   1.261       .  A
O1678      C1680   1.267       .  A
C1680      C2488   1.462       .  S
O1681      C1686   1.273       .  A
O1682      C2516   1.273       .  A
C1683      O2501   1.265       .  A
C1683      O1685   1.282   1_565  A
C1683      C3273   1.477       .  S
C1684      O2514   1.273   1_545  A
C1684      C2448   1.476       .  S
C1686      C2478   1.482       .  S
Fe1687     O1703   2.041       .  S
Fe1687     O1693   2.051       .  S
Fe1687     O1700   2.065       .  S
Fe1687     O1692   2.010       .  S
Fe1687     O1698   1.941       .  S
Fe1688     O1691   2.042       .  S
Fe1688     O1695   2.108       .  S
Fe1688     O1699   2.046       .  S
Fe1688     O1704   2.078       .  S
Fe1688     O1698   1.927       .  S
Fe1689     O1707   2.102       .  S
Fe1689     O1694   2.071       .  S
Fe1689     O1701   2.099       .  S
Fe1689     O1690   2.117       .  S
Fe1689     O2530   1.933   1_545  S
O1690      C2529   1.282   1_545  A
O1691      C2537   1.271       .  A
O1692      C1697   1.261       .  A
O1693      C2528   1.264       .  A
O1694      C1706   1.271   1_545  A
O1695      C1708   1.278       .  A
C1696      O2525   1.264   1_545  A
C1696      O1701   1.273       .  A
C1696      C2451   1.481       .  S
C1697      O2522   1.282       .  A
C1697      C2398   1.463       .  S
O1698     Fe2521   1.933       .  S
O1699      C1702   1.266       .  A
O1700      C1702   1.267       .  A
C1702      C2431   1.466       .  S
O1703      C1708   1.266       .  A
O1704      C2538   1.271       .  A
C1705      O2523   1.271   1_545  A
C1705      O1707   1.280       .  A
C1705      C2408   1.487       .  S
C1706      O2536   1.271       .  A
C1706      C2461   1.481   1_565  S
C1708      C2418   1.480       .  S
Fe1709     O1725   2.049       .  S
Fe1709     O1715   2.043       .  S
Fe1709     O1722   2.052       .  S
Fe1709     O1714   2.005       .  S
Fe1709     O1720   1.938       .  S
Fe1710     O1713   2.045       .  S
Fe1710     O1717   2.116       .  S
Fe1710     O1721   2.052       .  S
Fe1710     O1726   2.079       .  S
Fe1710     O1720   1.917       .  S
Fe1711     O1729   2.102       .  S
Fe1711     O1716   2.081       .  S
Fe1711     O1723   2.121       .  S
Fe1711     O1712   2.135       .  S
Fe1711     O1720   1.932       .  S
O1712      C1719   1.287       .  A
O1713      C1727   1.272       .  A
O1714      C1719   1.263       .  A
O1715      C1718   1.256       .  A
O1716      C1728   1.275       .  A
O1717      C1730   1.282       .  A
C1718      O1723   1.272       .  A
C1718      C2348   1.490       .  S
C1719      C2338   1.466       .  S
O1721      C1724   1.266       .  A
O1722      C1724   1.263       .  A
C1724      C2378   1.462       .  S
O1725      C1730   1.270       .  A
O1726      C1728   1.273       .  A
C1727      O1729   1.280       .  A
C1727      C2368   1.483       .  S
C1728      C2358   1.485       .  S
C1730      C2388   1.484       .  S
Fe1731     O1747   2.058       .  S
Fe1731     O1737   2.078       .  S
Fe1731     O1744   2.084       .  S
Fe1731     O1736   2.032       .  S
Fe1731     O1742   1.934       .  S
Fe1732     O1735   2.032       .  S
Fe1732     O1739   2.089       .  S
Fe1732     O1743   2.036       .  S
Fe1732     O2580   2.082   1_545  S
Fe1732     O1742   1.911       .  S
Fe1733     O1751   2.125       .  S
Fe1733     O2570   2.075       .  S
Fe1733     O1745   2.082       .  S
Fe1733     O1734   2.123       .  S
Fe1733     O1742   1.937       .  S
O1734      C1741   1.282       .  A
O1735      C1749   1.264       .  A
O1736      C1741   1.266       .  A
O1737      C1740   1.270       .  A
O1738     Fe2565   2.075       .  S
O1738      C1750   1.270       .  A
O1739      C1752   1.275       .  A
C1740      O1745   1.274       .  A
C1740      C2361   1.485       .  S
C1741      C2311   1.477       .  S
O1743      C1746   1.263       .  A
O1744      C1746   1.270       .  A
C1746      C2331   1.462   1_545  S
O1747      C1752   1.271       .  A
O1748     Fe2564   2.082       .  S
O1748      C1750   1.273       .  A
C1749      O1751   1.282       .  A
C1749      C2468   1.478       .  S
C1750      C2351   1.482       .  S
C1752      C2318   1.478       .  S
Fe1753     O1769   2.058       .  S
Fe1753     O1759   2.087       .  S
Fe1753     O1766   2.103       .  S
Fe1753     O1758   2.028       .  S
Fe1753     O1764   1.926       .  S
Fe1754     O1757   2.009       .  S
Fe1754     O1761   2.102       .  S
Fe1754     O1765   2.025       .  S
Fe1754     O1770   2.103       .  S
Fe1754     O1764   1.892       .  S
Fe1755     O1773   2.150       .  S
Fe1755     O1760   2.059       .  S
Fe1755     O1767   2.070       .  S
Fe1755     O1756   2.125       .  S
Fe1755     O1764   1.933       .  S
O1756      C1763   1.284       .  A
O1757      C1771   1.257       .  A
O1758      C1763   1.268       .  A
O1759      C1762   1.273       .  A
O1760      C1772   1.268       .  A
O1761      C1774   1.277       .  A
C1762      O1767   1.273       .  A
C1762      C2268   1.481       .  S
C1763      C2278   1.474       .  S
O1765      C1768   1.260       .  A
O1766      C1768   1.274       .  A
C1768      C2298   1.462       .  S
O1769      C1774   1.271       .  A
O1770      C1772   1.276       .  A
C1771      O1773   1.284       .  A
C1771      C2248   1.485       .  S
C1772      C2261   1.487       .  S
C1774      C2288   1.485       .  S
Fe1775     O1791   2.043       .  S
Fe1775     O1781   2.045   1_655  S
Fe1775     O1788   2.068       .  S
Fe1775     O1780   2.015       .  S
Fe1775     O1786   1.952       .  S
Fe1776     O1779   2.045       .  S
Fe1776     O1783   2.103       .  S
Fe1776     O1787   2.047       .  S
Fe1776     O1792   2.073       .  S
Fe1776     O1786   1.934       .  S
Fe1777     O1795   2.109       .  S
Fe1777     O1782   2.078       .  S
Fe1777     O1789   2.101       .  S
Fe1777     O1778   2.116       .  S
Fe1777     O1786   1.942       .  S
O1778      C1785   1.283       .  A
O1779      C1793   1.273       .  A
O1780      C1785   1.262       .  A
O1781      C1784   1.262       .  A
O1782      C1794   1.270       .  A
O1783      C1796   1.275       .  A
C1784      O1789   1.273   1_455  A
C1785      C2218   1.469       .  S
O1787      C1790   1.268       .  A
O1788      C1790   1.269       .  A
C1790      C2238   1.466       .  S
O1791      C1796   1.265       .  A
O1792      C1794   1.269       .  A
C1793      O1795   1.282       .  A
C1793      C2341   1.488       .  S
C1794      C2271   1.486       .  S
C1796      C2228   1.481       .  S
Fe1797     O1813   2.059       .  S
Fe1797     O1803   2.081       .  S
Fe1797     O1810   2.087       .  S
Fe1797     O1802   2.033       .  S
Fe1797     O1808   1.934       .  S
Fe1798     O1801   2.031       .  S
Fe1798     O1805   2.089       .  S
Fe1798     O1809   2.037   1_556  S
Fe1798     O1814   2.080       .  S
Fe1798     O1808   1.909   1_556  S
Fe1799     O1817   2.129       .  S
Fe1799     O1804   2.078       .  S
Fe1799     O1811   2.080       .  S
Fe1799     O1800   2.121   1_556  S
Fe1799     O1808   1.937   1_556  S
O1800      C1807   1.282       .  A
O1801      C1815   1.265       .  A
O1802      C1807   1.267       .  A
O1803      C1806   1.271       .  A
O1804      C1816   1.269       .  A
O1805      C1818   1.275   1_556  A
C1806      O1811   1.274   1_554  A
C1806      C2171   1.486       .  S
C1807      C2188   1.478       .  S
O1809      C1812   1.263       .  A
O1810      C1812   1.271       .  A
C1812      C2201   1.461       .  S
O1813      C1818   1.271       .  A
O1814      C1816   1.272       .  A
C1815      O1817   1.284       .  A
C1815      C2281   1.482       .  S
C1816      C2178   1.485       .  S
C1818      C2208   1.478       .  S
Fe1819     O1835   2.044   1_554  S
Fe1819     O1825   2.044       .  S
Fe1819     O1832   2.058       .  S
Fe1819     O1824   2.002       .  S
Fe1819     O1830   1.938       .  S
Fe1820     O1823   2.047       .  S
Fe1820     O1827   2.113       .  S
Fe1820     O1831   2.058   1_556  S
Fe1820     O2668   2.078   1_545  S
Fe1820     O1830   1.924   1_556  S
Fe1821     O1839   2.102   1_554  S
Fe1821     O2658   2.082       .  S
Fe1821     O1833   2.119   1_554  S
Fe1821     O1822   2.126       .  S
Fe1821     O1830   1.935       .  S
O1822      C1829   1.285       .  A
O1823      C1837   1.272       .  A
O1824      C1829   1.263       .  A
O1825      C1828   1.258       .  A
O1826     Fe2653   2.082       .  S
O1826      C1838   1.274       .  A
O1827      C1840   1.280       .  A
C1828      O1833   1.273   1_554  A
C1828      C2181   1.489   1_554  S
C1829      C2411   1.462       .  S
O1831      C1834   1.267       .  A
O1832      C1834   1.265       .  A
C1834      C2158   1.470       .  S
O1835      C1840   1.268       .  A
O1836     Fe2652   2.078       .  S
O1836      C1838   1.272   1_556  A
C1837      O1839   1.281       .  A
C1837      C2141   1.486       .  S
C1838      C2168   1.484       .  S
C1840      C2151   1.483       .  S
Fe1841     O1857   2.051       .  S
Fe1841     O1847   2.061       .  S
Fe1841     O1854   2.067       .  S
Fe1841     O1846   2.025       .  S
Fe1841     O1852   1.927       .  S
Fe1842     O1845   2.034       .  S
Fe1842     O1849   2.101       .  S
Fe1842     O1853   2.039       .  S
Fe1842     O1858   2.091       .  S
Fe1842     O1852   1.906       .  S
Fe1843     O1861   2.123       .  S
Fe1843     O1848   2.070       .  S
Fe1843     O1855   2.097       .  S
Fe1843     O1844   2.123       .  S
Fe1843     O1852   1.930       .  S
O1844      C1851   1.283       .  A
O1845      C1859   1.263       .  A
O1846      C1851   1.266       .  A
O1847      C1850   1.265       .  A
O1848      C1860   1.272       .  A
O1849      C1862   1.278       .  A
C1850      O1855   1.275       .  A
C1850      C2118   1.490       .  S
C1851      C2251   1.466       .  S
O1853      C1856   1.262       .  A
O1854      C1856   1.265       .  A
C1856      C2381   1.455       .  S
O1857      C1862   1.272       .  A
O1858      C1860   1.276       .  A
C1859      O1861   1.281       .  A
C1859      C2108   1.473       .  S
C1860      C2128   1.486       .  S
C1862      C2321   1.476       .  S
Fe1863     O1879   2.044       .  S
Fe1863     O1869   2.052       .  S
Fe1863     O1876   2.074       .  S
Fe1863     O1868   2.019       .  S
Fe1863     O1874   1.952       .  S
Fe1864     O1867   2.048       .  S
Fe1864     O1871   2.105       .  S
Fe1864     O1875   2.044       .  S
Fe1864     O1880   2.076       .  S
Fe1864     O1874   1.941       .  S
Fe1865     O1883   2.098       .  S
Fe1865     O1870   2.067       .  S
Fe1865     O1877   2.092       .  S
Fe1865     O1866   2.106       .  S
Fe1865     O1874   1.946       .  S
O1866      C1873   1.280       .  A
O1867      C1881   1.274       .  A
O1868      C1873   1.263       .  A
O1869      C1872   1.264       .  A
O1870      C2714   1.267       .  A
O1871      C1884   1.275       .  A
C1872      O1877   1.272       .  A
C1872      C2131   1.472       .  S
C1873      C2101   1.473       .  S
O1875      C1878   1.268       .  A
O1876      C1878   1.270       .  A
C1878      C2328   1.466       .  S
O1879      C1884   1.264       .  A
O1880      C2714   1.268       .  A
C1881      O1883   1.280       .  A
C1881      C2401   1.487       .  S
C1882      O2702   1.267   1_545  A
C1882      O2712   1.268   1_545  A
C1882      C2121   1.470       .  S
C1884      C2391   1.483       .  S
Fe1885     O1901   2.052       .  S
Fe1885     O2723   2.066   1_545  S
Fe1885     O1898   2.075       .  S
Fe1885     O2722   2.033   1_545  S
Fe1885     O1896   1.932       .  S
Fe1886     O1889   2.034       .  S
Fe1886     O1893   2.111       .  S
Fe1886     O1897   2.038       .  S
Fe1886     O1902   2.097       .  S
Fe1886     O1896   1.916       .  S
Fe1887     O1905   2.128       .  S
Fe1887     O1892   2.068       .  S
Fe1887     O1899   2.088       .  S
Fe1887     O1888   2.129       .  S
Fe1887     O2728   1.936       .  S
O1888      C1895   1.284       .  A
O1889      C2735   1.265   1_545  A
O1890     Fe2717   2.033       .  S
O1890      C1895   1.267       .  A
O1891     Fe2717   2.066       .  S
O1891      C1894   1.268       .  A
O1892      C1904   1.270       .  A
O1893      C1906   1.280       .  A
C1894      O1899   1.273       .  A
C1894      C2078   1.483       .  S
C1895      C2088   1.475       .  S
O1896     Fe2719   1.936   1_545  S
O1897      C1900   1.261       .  A
O1898      C1900   1.267       .  A
C1900      C2241   1.461       .  S
O1901      C1906   1.272       .  A
O1902      C2736   1.274   1_545  A
C1903      O2721   1.265       .  A
C1903      O1905   1.283       .  A
C1903      C2308   1.482       .  S
C1904      O2734   1.274       .  A
C1904      C2068   1.477       .  S
C1906      C2291   1.481       .  S
Fe1907     O1923   2.040       .  S
Fe1907     O2745   2.049       .  S
Fe1907     O1920   2.065       .  S
Fe1907     O1912   2.012       .  S
Fe1907     O1918   1.947       .  S
Fe1908     O2743   2.054       .  S
Fe1908     O1915   2.114       .  S
Fe1908     O1919   2.055       .  S
Fe1908     O2756   2.073       .  S
Fe1908     O1918   1.931       .  S
Fe1909     O1927   2.089       .  S
Fe1909     O1914   2.073       .  S
Fe1909     O1921   2.103       .  S
Fe1909     O1910   2.123       .  S
Fe1909     O2750   1.940       .  S
O1910      C1917   1.283       .  A
O1911     Fe2740   2.054       .  S
O1911      C1925   1.274       .  A
O1912      C2749   1.263       .  A
O1913     Fe2739   2.049       .  S
O1913      C1916   1.262       .  A
O1914      C1926   1.271       .  A
O1915      C1928   1.281       .  A
C1916      O1921   1.271       .  A
C1917      O2744   1.263       .  A
C1917      C2970   1.465       .  S
O1918     Fe2741   1.940   1_545  S
O1919      C1922   1.265       .  A
O1920      C1922   1.265       .  A
C1922      C2301   1.472       .  S
O1923      C1928   1.268       .  A
O1924     Fe2740   2.073       .  S
O1924      C1926   1.270       .  A
C1925      O1927   1.278       .  A
C1925      C2098   1.484       .  S
C1926      C2081   1.470       .  S
C1928      C2231   1.482       .  S
Fe1929     O1945   2.058       .  S
Fe1929     O1935   2.072       .  S
Fe1929     O1942   2.076       .  S
Fe1929     O1934   2.028       .  S
Fe1929     O1940   1.941       .  S
Fe1930     O1933   2.028       .  S
Fe1930     O1937   2.104       .  S
Fe1930     O1941   2.037       .  S
Fe1930     O1946   2.092       .  S
Fe1930     O1940   1.914       .  S
Fe1931     O1949   2.128       .  S
Fe1931     O1936   2.061       .  S
Fe1931     O1943   2.075       .  S
Fe1931     O1932   2.127       .  S
Fe1931     O1940   1.934       .  S
O1932      C1939   1.284       .  A
O1933      C1947   1.265       .  A
O1934      C1939   1.268       .  A
O1935      C1938   1.266       .  A
O1936      C1948   1.267       .  A
O1937      C1950   1.279       .  A
C1938      O1943   1.270       .  A
C1939      C2111   1.484       .  S
O1941      C1944   1.261       .  A
O1942      C1944   1.266       .  A
C1944      C2428   1.459       .  S
O1945      C1950   1.274       .  A
O1946      C1948   1.273       .  A
C1947      O1949   1.283       .  A
C1947      C2191   1.478       .  S
C1948      C2051   1.480       .  S
C1950      C2481   1.483       .  S
Fe1951     O1967   2.042       .  S
Fe1951     O1957   2.049       .  S
Fe1951     O1964   2.072       .  S
Fe1951     O1956   2.017       .  S
Fe1951     O1962   1.949       .  S
Fe1952     O1955   2.042       .  S
Fe1952     O1959   2.102       .  S
Fe1952     O1963   2.044       .  S
Fe1952     O1968   2.071       .  S
Fe1952     O1962   1.938       .  S
Fe1953     O1971   2.103       .  S
Fe1953     O1958   2.072       .  S
Fe1953     O1965   2.092       .  S
Fe1953     O1954   2.113       .  S
Fe1953     O1962   1.941       .  S
O1954      C1961   1.281       .  A
O1955      C1969   1.273       .  A
O1956      C1961   1.263       .  A
O1957      C1960   1.263       .  A
O1958      C1970   1.269       .  A
O1959      C1972   1.274       .  A
C1960      O1965   1.272       .  A
C1960      C2048   1.471       .  S
C1961      C2371   1.474       .  S
O1963      C1966   1.268       .  A
O1964      C1966   1.270       .  A
C1966      C2491   1.467       .  S
O1967      C1972   1.263       .  A
O1968      C1970   1.269       .  A
C1969      O1971   1.282       .  A
C1969      C2038   1.481       .  S
C1970      C2058   1.482       .  S
C1972      C2421   1.479       .  S
Fe1973     O1989   2.042   1_554  S
Fe1973     O1979   2.050       .  S
Fe1973     O1986   2.074       .  S
Fe1973     O1978   2.015       .  S
Fe1973     O1984   1.947       .  S
Fe1974     O1977   2.048       .  S
Fe1974     O1981   2.106       .  S
Fe1974     O1985   2.046   1_556  S
Fe1974     O1990   2.074       .  S
Fe1974     O1984   1.937   1_556  S
Fe1975     O1993   2.101   1_554  S
Fe1975     O1980   2.072       .  S
Fe1975     O1987   2.092   1_554  S
Fe1975     O1976   2.109       .  S
Fe1975     O1984   1.940       .  S
O1976      C1983   1.280       .  A
O1977      C1991   1.275       .  A
O1978      C1983   1.262       .  A
O1979      C1982   1.264       .  A
O1980      C1992   1.270       .  A
O1981      C1994   1.275       .  A
C1982      O1987   1.272   1_554  A
C1982      C2018   1.472   1_554  S
C1983      C2041   1.469       .  S
O1985      C1988   1.268       .  A
O1986      C1988   1.271       .  A
C1988      C2198   1.467       .  S
O1989      C1994   1.264       .  A
O1990      C1992   1.269   1_556  A
C1991      O1993   1.280       .  A
C1991      C2221   1.488       .  S
C1992      C2028   1.480       .  S
C1994      C2148   1.482       .  S
Fe1995     O2011   2.052       .  S
Fe1995     O2001   2.074       .  S
Fe1995     O2008   2.077       .  S
Fe1995     O2000   2.029       .  S
Fe1995     O2006   1.942       .  S
Fe1996     O1999   2.030       .  S
Fe1996     O2003   2.105       .  S
Fe1996     O2007   2.040   1_556  S
Fe1996     O2012   2.087       .  S
Fe1996     O2006   1.916   1_556  S
Fe1997     O2015   2.121       .  S
Fe1997     O2002   2.063       .  S
Fe1997     O2009   2.073       .  S
Fe1997     O1998   2.121   1_556  S
Fe1997     O2006   1.932   1_556  S
O1998      C2005   1.283       .  A
O1999      C2013   1.266       .  A
O2000      C2005   1.269       .  A
O2001      C2004   1.266       .  A
O2002      C2846   1.267       .  A
O2003      C2016   1.280   1_556  A
C2004      O2009   1.269   1_554  A
C2004      C2031   1.482       .  S
C2005      C2438   1.473       .  S
O2007      C2010   1.259       .  A
O2008      C2010   1.264       .  A
C2010      C2161   1.462       .  S
O2011      C2016   1.275       .  A
O2012      C2846   1.272       .  A
C2013      O2015   1.283       .  A
C2013      C2091   1.481       .  S
C2014      O2834   1.267   1_545  A
C2014      O2844   1.272   1_545  A
C2014      C2021   1.475       .  S
C2016      C2211   1.480       .  S
C2017      C2018   1.405       .  A
C2017      C2022   1.403       .  A
C2017      H2024   1.083       .  S
C2018      C2019   1.405   1_556  A
C2019      C2020   1.399       .  A
C2019      F2026   1.358       .  S
C2020      C2021   1.404   1_554  A
C2020      H2025   1.083       .  S
C2021      C2022   1.404       .  A
C2022      F2023   1.357       .  S
C2027      C2028   1.403       .  A
C2027      C2032   1.401       .  A
C2027      H2034   1.083       .  S
C2028      C2029   1.409   1_554  A
C2029      C2030   1.398       .  A
C2029      F2036   1.358       .  S
C2030      C2031   1.403   1_556  A
C2030      H2035   1.083       .  S
C2031      C2032   1.411       .  A
C2032      F2033   1.357       .  S
C2037      C2038   1.403       .  A
C2037      C2042   1.399       .  A
C2037      H2044   1.083       .  S
C2038      C2039   1.413       .  A
C2039      C2040   1.397       .  A
C2039      F2046   1.358       .  S
C2040      C2041   1.400       .  A
C2040      H2045   1.084       .  S
C2041      C2042   1.408       .  A
C2042      F2043   1.358       .  S
C2047      C2048   1.404       .  A
C2047      C2052   1.401       .  A
C2047      H2054   1.084       .  S
C2048      C2049   1.404       .  A
C2049      C2050   1.401       .  A
C2049      F2056   1.358       .  S
C2050      C2051   1.407       .  A
C2050      H2055   1.084       .  S
C2051      C2052   1.406       .  A
C2052      F2053   1.357       .  S
C2057      C2058   1.407       .  A
C2057      C2062   1.397       .  A
C2057      H2064   1.083       .  S
C2058      C2059   1.406       .  A
C2059      C2060   1.402       .  A
C2059      F2066   1.357       .  S
C2060      C2061   1.407       .  A
C2060      H2065   1.083       .  S
C2061      C2062   1.405       .  A
C2062      F2063   1.358       .  S
C2067      C2068   1.396       .  A
C2067      C2072   1.392       .  A
C2067      H2906   1.083       .  S
C2068      C2069   1.407       .  A
C2069      C2070   1.412       .  A
C2069      F2076   1.356       .  S
C2070      C2071   1.410       .  A
C2070      H2075   1.085       .  S
C2071      C2072   1.409       .  A
C2072      F2905   1.358       .  S
F2073      C2904   1.358       .  S
H2074      C2899   1.084       .  S
C2077      C2078   1.408       .  A
C2077      C2082   1.393       .  A
C2077      H2916   1.083       .  S
C2078      C2079   1.408       .  A
C2079      C2080   1.407       .  A
C2079      F2086   1.357       .  S
C2080      C2081   1.406       .  A
C2080      H2085   1.083       .  S
C2081      C2082   1.398       .  A
C2082      F2915   1.356       .  S
F2083      C2914   1.356       .  S
H2084      C2909   1.083   1_545  S
C2087      C2088   1.400       .  A
C2087      C2092   1.402       .  A
C2087      H2094   1.083       .  S
C2088      C2089   1.409       .  A
C2089      C2090   1.398       .  A
C2089      F2096   1.352       .  S
C2090      C2091   1.399       .  A
C2090      H2095   1.083       .  S
C2091      C2092   1.414       .  A
C2092      F2093   1.358       .  S
C2097      C2098   1.408       .  A
C2097      C2102   1.398       .  A
C2097      H2936   1.083       .  S
C2098      C2099   1.407       .  A
C2099      C2100   1.399       .  A
C2099      F2106   1.357       .  S
C2100      C2101   1.407       .  A
C2100      H2105   1.084       .  S
C2101      C2102   1.404       .  A
C2102      F2935   1.358       .  S
F2103      C2934   1.358       .  S
H2104      C2929   1.083   1_545  S
C2107      C2108   1.409       .  A
C2107      C2112   1.407       .  A
C2107      H2114   1.083       .  S
C2108      C2109   1.402       .  A
C2109      C2110   1.396       .  A
C2109      F2116   1.359       .  S
C2110      C2111   1.409       .  A
C2110      H2115   1.084       .  S
C2111      C2112   1.404       .  A
C2112      F2113   1.356       .  S
C2117      C2118   1.407       .  A
C2117      C2122   1.405       .  A
C2117      H2124   1.083       .  S
C2118      C2119   1.417       .  A
C2119      C2120   1.395       .  A
C2119      F2126   1.358       .  S
C2120      C2121   1.395       .  A
C2120      H2125   1.084       .  S
C2121      C2122   1.406       .  A
C2122      F2123   1.357       .  S
C2127      C2128   1.405       .  A
C2127      C2132   1.399       .  A
C2127      H2134   1.083       .  S
C2128      C2129   1.411       .  A
C2129      C2130   1.404       .  A
C2129      F2136   1.356       .  S
C2130      C2131   1.402       .  A
C2130      H2135   1.083       .  S
C2131      C2132   1.405       .  A
C2132      F2133   1.358       .  S
C2137      C2138   1.402       .  A
C2137      C2142   1.395       .  A
C2137      H2144   1.084       .  S
C2138      C2749   1.465       .  S
C2138      C2971   1.402       .  A
C2139      C2970   1.402       .  A
C2139      C2140   1.404       .  A
C2139      F2146   1.357       .  S
C2140      C2973   1.410       .  A
C2140      H2145   1.083       .  S
C2141      C2972   1.410       .  A
C2141      C2142   1.410       .  A
C2142      F2143   1.358       .  S
C2147      C2148   1.406       .  A
C2147      C2152   1.399       .  A
C2147      H2154   1.084       .  S
C2148      C2149   1.408       .  A
C2149      C2150   1.399       .  A
C2149      F2156   1.358       .  S
C2150      C2151   1.407       .  A
C2150      H2155   1.083       .  S
C2151      C2152   1.408       .  A
C2152      F2153   1.358       .  S
C2157      C2990   1.403       .  A
C2157      C2162   1.393       .  A
C2157      H2164   1.084       .  S
C2158      C2989   1.403   1_545  A
C2158      C2159   1.408       .  A
C2159      C2160   1.391       .  A
C2159      F2166   1.358       .  S
C2160      C2993   1.401   1_545  A
C2160      H2165   1.084       .  S
C2161      C2992   1.401       .  A
C2161      C2162   1.406       .  A
C2162      F2163   1.358       .  S
C2167      C2168   1.404       .  A
C2167      C2172   1.405       .  A
C2167      H2174   1.083       .  S
C2168      C2169   1.409   1_554  A
C2169      C2170   1.399       .  A
C2169      F2176   1.358       .  S
C2170      C2171   1.404   1_556  A
C2170      H2175   1.083       .  S
C2171      C2172   1.411       .  A
C2172      F2173   1.357       .  S
C2177      C2178   1.399       .  A
C2177      C2182   1.386       .  A
C2177      H2184   1.084       .  S
C2178      C2179   1.412       .  A
C2179      C2180   1.416       .  A
C2179      F2186   1.356       .  S
C2180      C2181   1.408       .  A
C2180      H2185   1.083       .  S
C2181      C2182   1.411       .  A
C2182      F2183   1.356   1_556  S
C2187      C2188   1.409       .  A
C2187      C2192   1.400       .  A
C2187      H2194   1.084       .  S
C2188      C2189   1.401       .  A
C2189      C2190   1.403       .  A
C2189      F2196   1.357       .  S
C2190      C2191   1.411       .  A
C2190      H2195   1.084       .  S
C2191      C2192   1.403       .  A
C2192      F2193   1.358       .  S
C2197      C2198   1.403       .  A
C2197      C2202   1.393       .  A
C2197      H2204   1.084       .  S
C2198      C2199   1.406       .  A
C2199      C2200   1.393       .  A
C2199      F2206   1.358       .  S
C2200      C2201   1.402       .  A
C2200      H2205   1.084       .  S
C2201      C2202   1.404       .  A
C2202      F2203   1.358       .  S
C2207      C2208   1.403       .  A
C2207      C2212   1.399       .  A
C2207      H2214   1.083       .  S
C2208      C2209   1.409       .  A
C2209      C2210   1.396       .  A
C2209      F2216   1.358       .  S
C2210      C2211   1.404       .  A
C2210      H2215   1.083       .  S
C2211      C2212   1.410       .  A
C2212      F2213   1.357       .  S
C2217      C2218   1.404       .  A
C2217      C2222   1.403       .  A
C2217      H2224   1.083       .  S
C2218      C2219   1.402       .  A
C2219      C2220   1.395       .  A
C2219      F2226   1.355       .  S
C2220      C2221   1.407       .  A
C2220      H2225   1.083       .  S
C2221      C2222   1.412       .  A
C2222      F2223   1.357       .  S
C2227      C2232   1.399       .  A
C2227      H2234   1.084       .  S
C2228      C2229   1.408       .  A
C2229      C2230   1.398       .  A
C2229      F2236   1.358       .  S
C2230      H2235   1.084       .  S
C2231      C2232   1.408       .  A
C2232      F2233   1.357       .  S
C2237      C2238   1.403       .  A
C2237      C2242   1.392       .  A
C2237      H2244   1.084       .  S
C2238      C2239   1.406       .  A
C2239      C2240   1.392       .  A
C2239      F2246   1.358       .  S
C2240      C2241   1.402       .  A
C2240      H2245   1.084       .  S
C2241      C2242   1.405       .  A
C2242      F2243   1.358       .  S
C2247      C2248   1.411       .  A
C2247      C2252   1.382       .  A
C2247      H2254   1.083       .  S
C2248      C2249   1.407       .  A
C2249      C2250   1.413       .  A
C2249      F2256   1.356       .  S
C2250      C2251   1.410       .  A
C2250      H2255   1.081       .  S
C2251      C2252   1.395       .  A
C2252      F2253   1.359       .  S
C2257      C2258   1.405       .  A
C2257      C2262   1.401       .  A
C2257      H2264   1.084       .  S
C2258      C2259   1.404       .  A
C2259      C2260   1.404       .  A
C2259      F2266   1.357       .  S
C2260      C2261   1.409       .  A
C2260      H2265   1.083       .  S
C2261      C2262   1.407       .  A
C2262      F2263   1.357       .  S
C2267      C2268   1.407       .  A
C2267      C2272   1.403       .  A
C2267      H2274   1.083       .  S
C2268      C2269   1.405       .  A
C2269      C2270   1.397       .  A
C2269      F2276   1.358       .  S
C2270      C2271   1.407       .  A
C2270      H2275   1.084       .  S
C2271      C2272   1.408       .  A
C2272      F2273   1.355       .  S
C2277      C2278   1.399       .  A
C2277      C2282   1.402       .  A
C2277      H2284   1.083       .  S
C2278      C2279   1.410       .  A
C2279      C2280   1.399       .  A
C2279      F2286   1.358       .  S
C2280      C2281   1.401       .  A
C2280      H2285   1.083       .  S
C2281      C2282   1.414       .  A
C2282      F2283   1.358       .  S
C2287      C2288   1.407       .  A
C2287      C2292   1.399       .  A
C2287      H2294   1.083       .  S
C2288      C2289   1.409       .  A
C2289      C2290   1.401       .  A
C2289      F2296   1.358       .  S
C2290      C2291   1.405       .  A
C2290      H2295   1.083       .  S
C2291      C2292   1.407       .  A
C2292      F2293   1.357       .  S
C2297      C2298   1.402       .  A
C2297      C2302   1.394       .  A
C2297      H2304   1.084       .  S
C2298      C2299   1.406       .  A
C2299      C2300   1.394       .  A
C2299      F2306   1.358       .  S
C2300      C2301   1.404       .  A
C2300      H2305   1.083       .  S
C2301      C2302   1.407       .  A
C2302      F2303   1.356       .  S
C2307      C3140   1.411       .  A
C2307      C2312   1.403       .  A
C2307      H3146   1.084       .  S
C2308      C3139   1.411       .  A
C2308      C3141   1.404       .  A
C2309      C3140   1.404   1_565  A
C2309      C2310   1.401       .  A
C2309      F2316   1.358       .  S
C2310      C2311   1.408   1_565  A
C2310      H2315   1.084       .  S
C2311      C2312   1.401       .  A
C2312      F2313   1.357       .  S
H2314      C3139   1.084       .  S
C2317      C2322   1.397       .  A
C2317      H2324   1.084       .  S
C2318      C2319   1.406       .  A
C2319      F2326   1.358       .  S
C2320      C2321   1.406       .  A
C2320      H2325   1.084       .  S
C2321      C2322   1.406       .  A
C2322      F2323   1.358       .  S
C2327      C3160   1.404       .  A
C2327      C2332   1.392   1_565  A
C2327      H2334   1.084   1_565  S
C2328      C3159   1.404       .  A
C2328      C2329   1.405       .  A
C2329      F2336   1.358       .  S
C2330      C3163   1.403       .  A
C2330      H2335   1.084       .  S
C2331      C3162   1.403       .  A
C2337      C2338   1.402       .  A
C2337      C2342   1.395       .  A
C2337      H2344   1.085       .  S
C2338      C2339   1.403       .  A
C2339      C2340   1.404       .  A
C2339      F2346   1.357       .  S
C2340      C2341   1.410       .  A
C2340      H2345   1.083       .  S
C2341      C2342   1.410       .  A
C2342      F2343   1.358       .  S
C2347      C2348   1.409       .  A
C2347      C2352   1.415       .  A
C2347      H2354   1.083       .  S
C2348      C2349   1.412       .  A
C2349      C2350   1.386       .  A
C2349      F2356   1.358       .  S
C2350      C2351   1.398       .  A
C2350      H2355   1.083       .  S
C2351      C2352   1.411       .  A
C2352      F2353   1.356       .  S
C2357      C2358   1.404       .  A
C2357      C2362   1.403       .  A
C2357      H2364   1.083       .  S
C2358      C2359   1.410       .  A
C2359      C2360   1.400       .  A
C2359      F2366   1.358       .  S
C2360      C2361   1.403       .  A
C2360      H2365   1.084       .  S
C2361      C2362   1.411       .  A
C2362      F2363   1.357       .  S
C2367      C2368   1.403       .  A
C2367      C2372   1.400       .  A
C2367      H2374   1.083       .  S
C2368      C2369   1.413       .  A
C2369      C2370   1.398       .  A
C2369      F2376   1.358       .  S
C2370      C2371   1.400       .  A
C2370      H2375   1.084       .  S
C2371      C2372   1.410       .  A
C2372      F2373   1.358       .  S
C2377      C2382   1.389       .  A
C2377      H2384   1.083       .  S
C2378      C2379   1.405       .  A
C2379      F2386   1.358       .  S
C2380      C2381   1.403       .  A
C2380      H2385   1.084       .  S
C2381      C2382   1.402       .  A
C2382      F2383   1.358       .  S
C2387      C2392   1.399       .  A
C2387      H2394   1.083       .  S
C2388      C2389   1.409       .  A
C2389      F2396   1.357       .  S
C2390      C2391   1.406       .  A
C2390      H2395   1.083       .  S
C2391      C2392   1.408       .  A
C2392      F2393   1.358       .  S
C2397      C3230   1.401       .  A
C2397      C3234   1.401       .  A
C2397      H2404   1.083       .  S
C2398      C3229   1.401       .  A
C2398      C2399   1.403       .  A
C2399      C2400   1.395       .  A
C2399      F2406   1.358       .  S
C2400      C2401   1.407       .  A
C2400      H2405   1.083       .  S
C2401      C2402   1.413       .  A
C2402      C3229   1.401       .  A
C2402      F3235   1.357       .  S
F2403      C3234   1.357       .  S
C2407      C2408   1.408       .  A
C2407      C2412   1.400       .  A
C2407      H2414   1.083       .  S
C2408      C2409   1.413   1_545  A
C2409      C2410   1.396   1_565  A
C2409      F3248   1.358       .  S
C2410      C2411   1.400       .  A
C2410      H3247   1.084   1_545  S
C2411      C2412   1.404       .  A
C2412      F2413   1.357       .  S
H2415      C3242   1.084       .  S
F2416      C3241   1.358       .  S
C2417      C2418   1.405       .  A
C2417      C2422   1.398       .  A
C2417      H2424   1.083       .  S
C2418      C2419   1.409       .  A
C2419      C2420   1.398       .  A
C2419      F2426   1.358       .  S
C2420      C2421   1.404       .  A
C2420      H2425   1.083       .  S
C2421      C2422   1.408       .  A
C2422      F2423   1.358       .  S
C2427      C2428   1.402       .  A
C2427      C2432   1.391       .  A
C2427      H2434   1.084       .  S
C2428      C2429   1.404       .  A
C2429      C2430   1.392       .  A
C2429      F2436   1.358       .  S
C2430      C2431   1.404       .  A
C2430      H2435   1.084       .  S
C2431      C2432   1.406       .  A
C2432      F2433   1.358       .  S
C2437      C2438   1.407       .  A
C2437      C2442   1.398       .  A
C2437      H2444   1.084       .  S
C2438      C2439   1.400       .  A
C2439      C2440   1.401       .  A
C2439      F2446   1.357       .  S
C2440      C2441   1.411       .  A
C2440      H2445   1.083       .  S
C2441      C2515   1.477       .  S
C2441      C2442   1.403       .  A
C2442      F3275   1.358       .  S
F2443      C3274   1.358       .  S
C2447      C3280   1.400       .  A
C2447      C2452   1.395       .  A
C2447      H2454   1.084       .  S
C2448      C3279   1.400       .  A
C2448      C2449   1.406       .  A
C2449      C2450   1.408       .  A
C2449      F2456   1.357       .  S
C2450      C2451   1.407       .  A
C2450      H2455   1.084       .  S
C2451      C3284   1.408       .  A
C2452      C3283   1.408       .  A
C2452      F2453   1.358       .  S
C2457      C3290   1.403       .  A
C2457      C2462   1.398       .  A
C2457      H2464   1.083       .  S
C2458      C3289   1.403       .  A
C2458      C2459   1.409       .  A
C2459      C2460   1.401       .  A
C2459      F2466   1.357       .  S
C2460      C2461   1.403       .  A
C2460      H2465   1.083       .  S
C2461      C3294   1.410       .  A
C2462      C3293   1.410       .  A
C2462      F2463   1.358       .  S
C2467      C2468   1.400       .  A
C2467      C2472   1.397       .  A
C2467      H3306   1.084       .  S
C2468      C2469   1.413       .  A
C2469      C2470   1.403       .  A
C2469      F2476   1.357       .  S
C2470      C2471   1.400       .  A
C2470      H2475   1.083       .  S
C2471      C2472   1.410       .  A
C2472      F3305   1.358   1_545  S
F2473      C3304   1.358       .  S
H2474      C3299   1.084       .  S
C2477      C2482   1.399       .  A
C2477      H2484   1.084       .  S
C2478      C2479   1.409       .  A
C2479      C2480   1.400       .  A
C2479      F2486   1.357       .  S
C2480      H2485   1.084       .  S
C2481      C2482   1.410       .  A
C2482      F2483   1.358       .  S
C2487      C2488   1.403       .  A
C2487      C2492   1.392       .  A
C2487      H2494   1.084       .  S
C2488      C2489   1.405       .  A
C2489      C2490   1.392       .  A
C2489      F2496   1.358       .  S
C2490      C2491   1.404       .  A
C2490      H2495   1.084       .  S
C2491      C2492   1.406       .  A
C2492      F2493   1.358       .  S
Fe2497     O2513   2.055       .  S
Fe2497     O2503   2.075       .  S
Fe2497     O2510   2.078       .  S
Fe2497     O2502   2.028       .  S
Fe2497     O2508   1.937       .  S
Fe2498     O2501   2.028       .  S
Fe2498     O2505   2.106       .  S
Fe2498     O2509   2.037       .  S
Fe2498     O2514   2.096       .  S
Fe2498     O2508   1.916       .  S
Fe2499     O2517   2.123       .  S
Fe2499     O2504   2.061       .  S
Fe2499     O2511   2.075       .  S
Fe2499     O2500   2.122       .  S
O2500      C2507   1.283       .  A
O2504      C2516   1.267       .  A
O2505      C2518   1.279       .  A
C2506      O2511   1.271   1_455  A
C2507      C3303   1.477       .  S
O2509      C2512   1.261       .  A
O2510      C2512   1.267       .  A
C2512      C3320   1.462       .  S
O2513      C2518   1.273       .  A
C2515      O2517   1.282       .  A
C2516      C3280   1.476       .  S
C2518      C3310   1.482       .  S
Fe2519     O2535   2.041       .  S
Fe2519     O2525   2.051       .  S
Fe2519     O2532   2.065       .  S
Fe2519     O2524   2.010       .  S
Fe2519     O2530   1.941       .  S
Fe2520     O2523   2.042       .  S
Fe2520     O2527   2.108       .  S
Fe2520     O2531   2.046       .  S
Fe2520     O2536   2.078       .  S
Fe2520     O2530   1.927       .  S
Fe2521     O2539   2.102       .  S
Fe2521     O2526   2.071       .  S
Fe2521     O2533   2.099       .  S
Fe2521     O2522   2.117       .  S
O2524      C2529   1.261       .  A
O2526      C2538   1.271       .  A
O2527      C2540   1.278       .  A
C2528      O2533   1.273       .  A
C2528      C3283   1.481       .  S
C2529      C3230   1.463       .  S
O2531      C2534   1.266       .  A
O2532      C2534   1.267       .  A
C2534      C3263   1.466       .  S
O2535      C2540   1.266       .  A
C2537      O2539   1.280       .  A
C2537      C3240   1.487       .  S
C2538      C3293   1.481       .  S
C2540      C3250   1.480       .  S
Fe2541     O2557   2.049       .  S
Fe2541     O2547   2.043       .  S
Fe2541     O2554   2.052       .  S
Fe2541     O2546   2.005       .  S
Fe2541     O2552   1.938       .  S
Fe2542     O2545   2.045       .  S
Fe2542     O2549   2.116       .  S
Fe2542     O2553   2.052       .  S
Fe2542     O2558   2.079       .  S
Fe2542     O2552   1.917       .  S
Fe2543     O2561   2.102       .  S
Fe2543     O2548   2.081       .  S
Fe2543     O2555   2.121       .  S
Fe2543     O2544   2.135       .  S
Fe2543     O2552   1.932       .  S
O2544      C2551   1.287       .  A
O2545      C2559   1.272       .  A
O2546      C2551   1.263       .  A
O2547      C2550   1.256       .  A
O2548      C2560   1.275       .  A
O2549      C2562   1.282       .  A
C2550      O2555   1.272       .  A
C2550      C3180   1.490       .  S
C2551      C3170   1.466       .  S
O2553      C2556   1.266       .  A
O2554      C2556   1.263       .  A
C2556      C3210   1.462       .  S
O2557      C2562   1.270       .  A
O2558      C2560   1.273       .  A
C2559      O2561   1.280       .  A
C2559      C3200   1.483       .  S
C2560      C3190   1.485       .  S
C2562      C3220   1.484       .  S
Fe2563     O2579   2.058       .  S
Fe2563     O2569   2.078       .  S
Fe2563     O2576   2.084       .  S
Fe2563     O2568   2.032       .  S
Fe2563     O2574   1.934       .  S
Fe2564     O2567   2.032       .  S
Fe2564     O2571   2.089       .  S
Fe2564     O2575   2.036       .  S
Fe2564     O2574   1.911       .  S
Fe2565     O2583   2.125       .  S
Fe2565     O2577   2.082       .  S
Fe2565     O2566   2.123       .  S
Fe2565     O2574   1.937       .  S
O2566      C2573   1.282       .  A
O2567      C2581   1.264       .  A
O2568      C2573   1.266       .  A
O2569      C2572   1.270       .  A
O2570      C2582   1.270   1_545  A
O2571      C2584   1.275       .  A
C2572      O2577   1.274       .  A
C2572      C3193   1.485       .  S
C2573      C3143   1.477       .  S
O2575      C2578   1.263       .  A
O2576      C2578   1.270       .  A
C2578      C3163   1.462       .  S
O2579      C2584   1.271       .  A
O2580      C2582   1.273       .  A
C2581      O2583   1.282       .  A
C2581      C3300   1.478       .  S
C2582      C3183   1.482       .  S
C2584      C3150   1.478       .  S
Fe2585     O2601   2.058       .  S
Fe2585     O2591   2.087       .  S
Fe2585     O2598   2.103       .  S
Fe2585     O2590   2.028       .  S
Fe2585     O2596   1.926       .  S
Fe2586     O2589   2.009       .  S
Fe2586     O2593   2.102       .  S
Fe2586     O2597   2.025       .  S
Fe2586     O2602   2.103       .  S
Fe2586     O2596   1.892       .  S
Fe2587     O2605   2.150       .  S
Fe2587     O2592   2.059       .  S
Fe2587     O2599   2.070       .  S
Fe2587     O2588   2.125       .  S
Fe2587     O2596   1.933       .  S
O2588      C2595   1.284       .  A
O2589      C2603   1.257       .  A
O2590      C2595   1.268       .  A
O2591      C2594   1.273       .  A
O2592      C2604   1.268       .  A
O2593      C2606   1.277       .  A
C2594      O2599   1.273       .  A
C2594      C3100   1.481       .  S
C2595      C3110   1.474       .  S
O2597      C2600   1.260       .  A
O2598      C2600   1.274       .  A
C2600      C3130   1.462       .  S
O2601      C2606   1.271       .  A
O2602      C2604   1.276       .  A
C2603      O2605   1.284       .  A
C2603      C3080   1.485       .  S
C2604      C3093   1.487       .  S
C2606      C3120   1.485       .  S
Fe2607     O2623   2.043       .  S
Fe2607     O2613   2.045   1_655  S
Fe2607     O2620   2.068       .  S
Fe2607     O2612   2.015       .  S
Fe2607     O2618   1.952       .  S
Fe2608     O2611   2.045       .  S
Fe2608     O2615   2.103       .  S
Fe2608     O2619   2.047       .  S
Fe2608     O2624   2.073       .  S
Fe2608     O2618   1.934       .  S
Fe2609     O2627   2.109       .  S
Fe2609     O2614   2.078       .  S
Fe2609     O2621   2.101       .  S
Fe2609     O2610   2.116       .  S
Fe2609     O2618   1.942       .  S
O2610      C2617   1.283       .  A
O2611      C2625   1.273       .  A
O2612      C2617   1.262       .  A
O2613      C2616   1.262       .  A
O2614      C2626   1.270       .  A
O2615      C2628   1.275       .  A
C2616      O2621   1.273   1_455  A
C2617      C3050   1.469       .  S
O2619      C2622   1.268       .  A
O2620      C2622   1.269       .  A
C2622      C3070   1.466       .  S
O2623      C2628   1.265       .  A
O2624      C2626   1.269       .  A
C2625      O2627   1.282       .  A
C2625      C3173   1.488       .  S
C2626      C3103   1.486       .  S
C2628      C3060   1.481       .  S
Fe2629     O2645   2.059       .  S
Fe2629     O2635   2.081       .  S
Fe2629     O2642   2.087       .  S
Fe2629     O2634   2.033       .  S
Fe2629     O2640   1.934       .  S
Fe2630     O2633   2.031       .  S
Fe2630     O2637   2.089       .  S
Fe2630     O2641   2.037   1_556  S
Fe2630     O2646   2.080       .  S
Fe2630     O2640   1.909   1_556  S
Fe2631     O2649   2.129       .  S
Fe2631     O2636   2.078       .  S
Fe2631     O2643   2.080       .  S
Fe2631     O2632   2.121   1_556  S
Fe2631     O2640   1.937   1_556  S
O2632      C2639   1.282       .  A
O2633      C2647   1.265       .  A
O2634      C2639   1.267       .  A
O2635      C2638   1.271       .  A
O2636      C2648   1.269       .  A
O2637      C2650   1.275   1_556  A
C2638      O2643   1.274   1_554  A
C2638      C3003   1.486       .  S
C2639      C3020   1.478       .  S
O2641      C2644   1.263       .  A
O2642      C2644   1.271       .  A
C2644      C3033   1.461       .  S
O2645      C2650   1.271       .  A
O2646      C2648   1.272       .  A
C2647      O2649   1.284       .  A
C2647      C3113   1.482       .  S
C2648      C3010   1.485       .  S
C2650      C3040   1.478       .  S
Fe2651     O2667   2.044   1_554  S
Fe2651     O2657   2.044       .  S
Fe2651     O2664   2.058       .  S
Fe2651     O2656   2.002       .  S
Fe2651     O2662   1.938       .  S
Fe2652     O2655   2.047       .  S
Fe2652     O2659   2.113       .  S
Fe2652     O2663   2.058   1_556  S
Fe2652     O2662   1.924   1_556  S
Fe2653     O2671   2.102   1_554  S
Fe2653     O2665   2.119   1_554  S
Fe2653     O2654   2.126       .  S
Fe2653     O2662   1.935       .  S
O2654      C2661   1.285       .  A
O2655      C2669   1.272       .  A
O2656      C2661   1.263       .  A
O2657      C2660   1.258       .  A
O2658      C2670   1.274   1_545  A
O2659      C2672   1.280       .  A
C2660      O2665   1.273   1_554  A
C2660      C3013   1.489   1_554  S
C2661      C3243   1.462       .  S
O2663      C2666   1.267       .  A
O2664      C2666   1.265       .  A
C2666      C2990   1.470       .  S
O2667      C2672   1.268       .  A
O2668      C2670   1.272   1_556  A
C2669      O2671   1.281       .  A
C2669      C2973   1.486       .  S
C2670      C3000   1.484       .  S
C2672      C2983   1.483       .  S
Fe2673     O2689   2.051       .  S
Fe2673     O2679   2.061       .  S
Fe2673     O2686   2.067       .  S
Fe2673     O2678   2.025       .  S
Fe2673     O2684   1.927       .  S
Fe2674     O2677   2.034       .  S
Fe2674     O2681   2.101       .  S
Fe2674     O2685   2.039       .  S
Fe2674     O2690   2.091       .  S
Fe2674     O2684   1.906       .  S
Fe2675     O2693   2.123       .  S
Fe2675     O2680   2.070       .  S
Fe2675     O2687   2.097       .  S
Fe2675     O2676   2.123       .  S
Fe2675     O2684   1.930       .  S
O2676      C2683   1.283       .  A
O2677      C2691   1.263       .  A
O2678      C2683   1.266       .  A
O2679      C2682   1.265       .  A
O2680      C2692   1.272       .  A
O2681      C2694   1.278       .  A
C2682      O2687   1.275       .  A
C2682      C2950   1.490       .  S
C2683      C3083   1.466       .  S
O2685      C2688   1.262       .  A
O2686      C2688   1.265       .  A
C2688      C3213   1.455       .  S
O2689      C2694   1.272       .  A
O2690      C2692   1.276       .  A
C2691      O2693   1.281       .  A
C2691      C2940   1.473       .  S
C2692      C2960   1.486       .  S
C2694      C3153   1.476       .  S
Fe2695     O2711   2.044       .  S
Fe2695     O2701   2.052       .  S
Fe2695     O2708   2.074       .  S
Fe2695     O2700   2.019       .  S
Fe2695     O2706   1.952       .  S
Fe2696     O2699   2.048       .  S
Fe2696     O2703   2.105       .  S
Fe2696     O2707   2.044       .  S
Fe2696     O2712   2.076       .  S
Fe2696     O2706   1.941       .  S
Fe2697     O2715   2.098       .  S
Fe2697     O2702   2.067       .  S
Fe2697     O2709   2.092       .  S
Fe2697     O2698   2.106       .  S
Fe2697     O2706   1.946       .  S
O2698      C2705   1.280       .  A
O2699      C2713   1.274       .  A
O2700      C2705   1.263       .  A
O2701      C2704   1.264       .  A
O2703      C2716   1.275       .  A
C2704      O2709   1.272       .  A
C2704      C2963   1.472       .  S
C2705      C2933   1.473       .  S
O2707      C2710   1.268       .  A
O2708      C2710   1.270       .  A
C2710      C3160   1.466       .  S
O2711      C2716   1.264       .  A
C2713      O2715   1.280       .  A
C2713      C3233   1.487       .  S
C2714      C2953   1.470       .  S
C2716      C3223   1.483       .  S
Fe2717     O2733   2.052       .  S
Fe2717     O2730   2.075       .  S
Fe2717     O2728   1.932       .  S
Fe2718     O2721   2.034       .  S
Fe2718     O2725   2.111       .  S
Fe2718     O2729   2.038       .  S
Fe2718     O2734   2.097       .  S
Fe2718     O2728   1.916       .  S
Fe2719     O2737   2.128       .  S
Fe2719     O2724   2.068       .  S
Fe2719     O2731   2.088       .  S
Fe2719     O2720   2.130       .  S
O2720      C2727   1.284       .  A
O2722      C2727   1.267       .  A
O2723      C2726   1.268       .  A
O2724      C2736   1.270       .  A
O2725      C2738   1.280       .  A
C2726      O2731   1.273       .  A
C2726      C2910   1.483       .  S
C2727      C2920   1.475       .  S
O2729      C2732   1.261       .  A
O2730      C2732   1.267       .  A
C2732      C3073   1.461       .  S
O2733      C2738   1.272       .  A
C2735      O2737   1.283       .  A
C2735      C3140   1.482   1_565  S
C2736      C2900   1.477       .  S
C2738      C3123   1.481       .  S
Fe2739     O2755   2.040       .  S
Fe2739     O2752   2.065       .  S
Fe2739     O2744   2.012       .  S
Fe2739     O2750   1.947       .  S
Fe2740     O2747   2.114       .  S
Fe2740     O2751   2.055       .  S
Fe2740     O2750   1.931       .  S
Fe2741     O2759   2.089       .  S
Fe2741     O2746   2.073       .  S
Fe2741     O2753   2.103       .  S
Fe2741     O2742   2.123       .  S
O2742      C2749   1.283   1_565  A
O2743      C2757   1.274   1_545  A
O2745      C2748   1.262   1_545  A
O2746      C2758   1.271       .  A
O2747      C2760   1.281       .  A
C2748      O2753   1.271       .  A
O2751      C2754   1.265       .  A
O2752      C2754   1.265       .  A
C2754      C3133   1.472       .  S
O2755      C2760   1.268       .  A
O2756      C2758   1.270   1_545  A
C2757      O2759   1.278       .  A
C2757      C2930   1.484       .  S
C2758      C2913   1.470       .  S
C2760      C3063   1.482       .  S
Fe2761     O2777   2.058       .  S
Fe2761     O2767   2.072       .  S
Fe2761     O2774   2.076       .  S
Fe2761     O2766   2.028       .  S
Fe2761     O2772   1.941       .  S
Fe2762     O2765   2.028       .  S
Fe2762     O2769   2.104       .  S
Fe2762     O2773   2.037       .  S
Fe2762     O2778   2.092       .  S
Fe2762     O2772   1.914       .  S
Fe2763     O2781   2.128       .  S
Fe2763     O2768   2.061       .  S
Fe2763     O2775   2.075       .  S
Fe2763     O2764   2.127       .  S
Fe2763     O2772   1.934       .  S
O2764      C2771   1.284       .  A
O2765      C2779   1.265       .  A
O2766      C2771   1.268       .  A
O2767      C2770   1.266       .  A
O2768      C2780   1.267       .  A
O2769      C2782   1.279       .  A
C2770      O2775   1.270       .  A
C2771      C2943   1.484       .  S
O2773      C2776   1.261       .  A
O2774      C2776   1.266       .  A
C2776      C3260   1.459       .  S
O2777      C2782   1.274       .  A
O2778      C2780   1.273       .  A
C2779      O2781   1.283       .  A
C2779      C3023   1.478       .  S
C2780      C2883   1.480       .  S
C2782      C3313   1.483       .  S
Fe2783     O2799   2.042       .  S
Fe2783     O2789   2.049       .  S
Fe2783     O2796   2.072       .  S
Fe2783     O2788   2.017       .  S
Fe2783     O2794   1.949       .  S
Fe2784     O2787   2.042       .  S
Fe2784     O2791   2.102       .  S
Fe2784     O2795   2.044       .  S
Fe2784     O2800   2.071       .  S
Fe2784     O2794   1.938       .  S
Fe2785     O2803   2.103       .  S
Fe2785     O2790   2.072       .  S
Fe2785     O2797   2.092       .  S
Fe2785     O2786   2.113       .  S
Fe2785     O2794   1.941       .  S
O2786      C2793   1.281       .  A
O2787      C2801   1.273       .  A
O2788      C2793   1.263       .  A
O2789      C2792   1.263       .  A
O2790      C2802   1.269       .  A
O2791      C2804   1.274       .  A
C2792      O2797   1.272       .  A
C2792      C2880   1.471       .  S
C2793      C3203   1.474       .  S
O2795      C2798   1.268       .  A
O2796      C2798   1.270       .  A
C2798      C3323   1.467       .  S
O2799      C2804   1.263       .  A
O2800      C2802   1.269       .  A
C2801      O2803   1.282       .  A
C2801      C2870   1.481       .  S
C2802      C2890   1.482       .  S
C2804      C3253   1.479       .  S
Fe2805     O2821   2.042   1_554  S
Fe2805     O2811   2.050       .  S
Fe2805     O2818   2.074       .  S
Fe2805     O2810   2.015       .  S
Fe2805     O2816   1.947       .  S
Fe2806     O2809   2.048       .  S
Fe2806     O2813   2.106       .  S
Fe2806     O2817   2.046   1_556  S
Fe2806     O2822   2.074       .  S
Fe2806     O2816   1.937   1_556  S
Fe2807     O2825   2.101   1_554  S
Fe2807     O2812   2.072       .  S
Fe2807     O2819   2.092   1_554  S
Fe2807     O2808   2.109       .  S
Fe2807     O2816   1.940       .  S
O2808      C2815   1.280       .  A
O2809      C2823   1.275       .  A
O2810      C2815   1.262       .  A
O2811      C2814   1.264       .  A
O2812      C2824   1.270       .  A
O2813      C2826   1.275       .  A
C2814      O2819   1.272   1_554  A
C2814      C2850   1.472   1_554  S
C2815      C2873   1.469       .  S
O2817      C2820   1.268       .  A
O2818      C2820   1.271       .  A
C2820      C3030   1.467       .  S
O2821      C2826   1.264       .  A
O2822      C2824   1.269   1_556  A
C2823      O2825   1.280       .  A
C2823      C3053   1.488       .  S
C2824      C2860   1.480       .  S
C2826      C2980   1.482       .  S
Fe2827     O2843   2.052       .  S
Fe2827     O2833   2.074       .  S
Fe2827     O2840   2.077       .  S
Fe2827     O2832   2.029       .  S
Fe2827     O2838   1.942       .  S
Fe2828     O2831   2.030       .  S
Fe2828     O2835   2.105       .  S
Fe2828     O2839   2.040   1_556  S
Fe2828     O2844   2.087       .  S
Fe2828     O2838   1.916   1_556  S
Fe2829     O2847   2.121       .  S
Fe2829     O2834   2.063       .  S
Fe2829     O2841   2.073       .  S
Fe2829     O2830   2.121   1_556  S
Fe2829     O2838   1.932   1_556  S
O2830      C2837   1.283       .  A
O2831      C2845   1.266       .  A
O2832      C2837   1.269       .  A
O2833      C2836   1.266       .  A
O2835      C2848   1.280   1_556  A
C2836      O2841   1.269   1_554  A
C2836      C2863   1.482       .  S
C2837      C3270   1.473       .  S
O2839      C2842   1.259       .  A
O2840      C2842   1.264       .  A
C2842      C2993   1.462       .  S
O2843      C2848   1.275       .  A
C2845      O2847   1.283       .  A
C2845      C2923   1.481       .  S
C2846      C2853   1.475       .  S
C2848      C3043   1.480       .  S
C2849      C2850   1.405       .  A
C2849      C2854   1.403       .  A
C2849      H2856   1.083       .  S
C2850      C2851   1.405   1_556  A
C2851      C2852   1.399       .  A
C2851      F2858   1.358       .  S
C2852      C2853   1.404   1_554  A
C2852      H2857   1.083       .  S
C2853      C2854   1.404       .  A
C2854      F2855   1.357       .  S
C2859      C2860   1.403       .  A
C2859      C2864   1.401       .  A
C2859      H2866   1.083       .  S
C2860      C2861   1.409   1_554  A
C2861      C2862   1.398       .  A
C2861      F2868   1.358       .  S
C2862      C2863   1.403   1_556  A
C2862      H2867   1.083       .  S
C2863      C2864   1.411       .  A
C2864      F2865   1.357       .  S
C2869      C2870   1.403       .  A
C2869      C2874   1.399       .  A
C2869      H2876   1.083       .  S
C2870      C2871   1.413       .  A
C2871      C2872   1.397       .  A
C2871      F2878   1.358       .  S
C2872      C2873   1.400       .  A
C2872      H2877   1.084       .  S
C2873      C2874   1.408       .  A
C2874      F2875   1.358       .  S
C2879      C2880   1.404       .  A
C2879      C2884   1.401       .  A
C2879      H2886   1.084       .  S
C2880      C2881   1.404       .  A
C2881      C2882   1.401       .  A
C2881      F2888   1.358       .  S
C2882      C2883   1.407       .  A
C2882      H2887   1.084       .  S
C2883      C2884   1.406       .  A
C2884      F2885   1.357       .  S
C2889      C2890   1.407       .  A
C2889      C2894   1.397       .  A
C2889      H2896   1.083       .  S
C2890      C2891   1.406       .  A
C2891      C2892   1.402       .  A
C2891      F2898   1.357       .  S
C2892      C2893   1.407       .  A
C2892      H2897   1.083       .  S
C2893      C2894   1.405       .  A
C2894      F2895   1.358       .  S
C2899      C2900   1.396       .  A
C2899      C2904   1.392       .  A
C2900      C2901   1.407       .  A
C2901      C2902   1.412       .  A
C2901      F2908   1.356       .  S
C2902      C2903   1.410       .  A
C2902      H2907   1.085       .  S
C2903      C2904   1.409       .  A
C2909      C2910   1.408       .  A
C2909      C2914   1.393   1_565  A
C2910      C2911   1.408       .  A
C2911      C2912   1.407       .  A
C2911      F2918   1.357       .  S
C2912      C2913   1.406       .  A
C2912      H2917   1.083       .  S
C2913      C2914   1.398   1_565  A
C2919      C2920   1.400       .  A
C2919      C2924   1.402       .  A
C2919      H2926   1.083       .  S
C2920      C2921   1.409       .  A
C2921      C2922   1.398       .  A
C2921      F2928   1.352       .  S
C2922      C2923   1.399       .  A
C2922      H2927   1.083       .  S
C2923      C2924   1.414       .  A
C2924      F2925   1.358       .  S
C2929      C2930   1.408       .  A
C2929      C2934   1.398       .  A
C2930      C2931   1.407       .  A
C2931      C2932   1.399       .  A
C2931      F2938   1.357       .  S
C2932      C2933   1.407       .  A
C2932      H2937   1.084       .  S
C2933      C2934   1.404       .  A
C2939      C2940   1.409       .  A
C2939      C2944   1.407       .  A
C2939      H2946   1.083       .  S
C2940      C2941   1.402       .  A
C2941      C2942   1.396       .  A
C2941      F2948   1.359       .  S
C2942      C2943   1.409       .  A
C2942      H2947   1.084       .  S
C2943      C2944   1.404       .  A
C2944      F2945   1.356       .  S
C2949      C2950   1.407       .  A
C2949      C2954   1.405       .  A
C2949      H2956   1.083       .  S
C2950      C2951   1.417       .  A
C2951      C2952   1.395       .  A
C2951      F2958   1.358       .  S
C2952      C2953   1.395       .  A
C2952      H2957   1.084       .  S
C2953      C2954   1.406       .  A
C2954      F2955   1.357       .  S
C2959      C2960   1.405       .  A
C2959      C2964   1.399       .  A
C2959      H2966   1.083       .  S
C2960      C2961   1.411       .  A
C2961      C2962   1.404       .  A
C2961      F2968   1.356       .  S
C2962      C2963   1.402       .  A
C2962      H2967   1.083       .  S
C2963      C2964   1.405       .  A
C2964      F2965   1.358       .  S
C2969      C2970   1.402       .  A
C2969      C2974   1.395       .  A
C2969      H2976   1.084       .  S
C2971      C2972   1.404       .  A
C2971      F2978   1.357   1_545  S
C2972      H2977   1.083       .  S
C2973      C2974   1.410       .  A
C2974      F2975   1.358       .  S
C2979      C2980   1.406       .  A
C2979      C2984   1.399       .  A
C2979      H2986   1.084       .  S
C2980      C2981   1.408       .  A
C2981      C2982   1.399       .  A
C2981      F2988   1.358       .  S
C2982      C2983   1.407       .  A
C2982      H2987   1.083       .  S
C2983      C2984   1.408       .  A
C2984      F2985   1.358       .  S
C2989      C2994   1.393       .  A
C2989      H2996   1.084       .  S
C2990      C2991   1.408       .  A
C2991      C2992   1.391       .  A
C2991      F2998   1.358       .  S
C2992      H2997   1.084       .  S
C2993      C2994   1.406       .  A
C2994      F2995   1.358       .  S
C2999      C3000   1.404       .  A
C2999      C3004   1.405       .  A
C2999      H3006   1.083       .  S
C3000      C3001   1.409   1_554  A
C3001      C3002   1.399       .  A
C3001      F3008   1.358       .  S
C3002      C3003   1.404   1_556  A
C3002      H3007   1.083       .  S
C3003      C3004   1.411       .  A
C3004      F3005   1.357       .  S
C3009      C3010   1.399       .  A
C3009      C3014   1.386       .  A
C3009      H3016   1.084       .  S
C3010      C3011   1.412       .  A
C3011      C3012   1.416       .  A
C3011      F3018   1.356       .  S
C3012      C3013   1.408       .  A
C3012      H3017   1.083       .  S
C3013      C3014   1.411       .  A
C3014      F3015   1.356   1_556  S
C3019      C3020   1.409       .  A
C3019      C3024   1.400       .  A
C3019      H3026   1.084       .  S
C3020      C3021   1.401       .  A
C3021      C3022   1.403       .  A
C3021      F3028   1.357       .  S
C3022      C3023   1.411       .  A
C3022      H3027   1.084       .  S
C3023      C3024   1.403       .  A
C3024      F3025   1.358       .  S
C3029      C3030   1.403       .  A
C3029      C3034   1.393       .  A
C3029      H3036   1.084       .  S
C3030      C3031   1.406       .  A
C3031      C3032   1.393       .  A
C3031      F3038   1.358       .  S
C3032      C3033   1.402       .  A
C3032      H3037   1.084       .  S
C3033      C3034   1.404       .  A
C3034      F3035   1.358       .  S
C3039      C3040   1.403       .  A
C3039      C3044   1.399       .  A
C3039      H3046   1.083       .  S
C3040      C3041   1.409       .  A
C3041      C3042   1.396       .  A
C3041      F3048   1.358       .  S
C3042      C3043   1.404       .  A
C3042      H3047   1.083       .  S
C3043      C3044   1.410       .  A
C3044      F3045   1.357       .  S
C3049      C3050   1.404       .  A
C3049      C3054   1.403       .  A
C3049      H3056   1.083       .  S
C3050      C3051   1.402       .  A
C3051      C3052   1.395       .  A
C3051      F3058   1.355       .  S
C3052      C3053   1.407       .  A
C3052      H3057   1.083       .  S
C3053      C3054   1.412       .  A
C3054      F3055   1.357       .  S
C3059      C3064   1.399       .  A
C3059      H3066   1.084       .  S
C3060      C3061   1.408       .  A
C3061      C3062   1.398       .  A
C3061      F3068   1.358       .  S
C3062      H3067   1.084       .  S
C3063      C3064   1.408       .  A
C3064      F3065   1.357       .  S
C3069      C3070   1.403       .  A
C3069      C3074   1.392       .  A
C3069      H3076   1.084       .  S
C3070      C3071   1.406       .  A
C3071      C3072   1.392       .  A
C3071      F3078   1.358       .  S
C3072      C3073   1.402       .  A
C3072      H3077   1.084       .  S
C3073      C3074   1.405       .  A
C3074      F3075   1.358       .  S
C3079      C3080   1.411       .  A
C3079      C3084   1.382       .  A
C3079      H3086   1.083       .  S
C3080      C3081   1.407       .  A
C3081      C3082   1.413       .  A
C3081      F3088   1.356       .  S
C3082      C3083   1.410       .  A
C3082      H3087   1.081       .  S
C3083      C3084   1.395       .  A
C3084      F3085   1.359       .  S
C3089      C3090   1.405       .  A
C3089      C3094   1.401       .  A
C3089      H3096   1.084       .  S
C3090      C3091   1.404       .  A
C3091      C3092   1.404       .  A
C3091      F3098   1.357       .  S
C3092      C3093   1.409       .  A
C3092      H3097   1.083       .  S
C3093      C3094   1.407       .  A
C3094      F3095   1.357       .  S
C3099      C3100   1.407       .  A
C3099      C3104   1.403       .  A
C3099      H3106   1.083       .  S
C3100      C3101   1.405       .  A
C3101      C3102   1.397       .  A
C3101      F3108   1.358       .  S
C3102      C3103   1.407       .  A
C3102      H3107   1.084       .  S
C3103      C3104   1.408       .  A
C3104      F3105   1.355       .  S
C3109      C3110   1.399       .  A
C3109      C3114   1.402       .  A
C3109      H3116   1.083       .  S
C3110      C3111   1.410       .  A
C3111      C3112   1.399       .  A
C3111      F3118   1.358       .  S
C3112      C3113   1.401       .  A
C3112      H3117   1.083       .  S
C3113      C3114   1.414       .  A
C3114      F3115   1.358       .  S
C3119      C3120   1.407       .  A
C3119      C3124   1.399       .  A
C3119      H3126   1.083       .  S
C3120      C3121   1.409       .  A
C3121      C3122   1.401       .  A
C3121      F3128   1.358       .  S
C3122      C3123   1.405       .  A
C3122      H3127   1.083       .  S
C3123      C3124   1.407       .  A
C3124      F3125   1.357       .  S
C3129      C3130   1.402       .  A
C3129      C3134   1.394       .  A
C3129      H3136   1.084       .  S
C3130      C3131   1.406       .  A
C3131      C3132   1.394       .  A
C3131      F3138   1.358       .  S
C3132      C3133   1.404       .  A
C3132      H3137   1.083       .  S
C3133      C3134   1.407       .  A
C3134      F3135   1.356       .  S
C3139      C3144   1.403       .  A
C3141      C3142   1.401       .  A
C3141      F3148   1.358       .  S
C3142      C3143   1.408       .  A
C3142      H3147   1.084       .  S
C3143      C3144   1.401       .  A
C3144      F3145   1.357       .  S
C3149      C3154   1.397       .  A
C3149      H3156   1.084       .  S
C3150      C3151   1.406       .  A
C3151      F3158   1.358       .  S
C3152      C3153   1.406       .  A
C3152      H3157   1.084       .  S
C3153      C3154   1.406       .  A
C3154      F3155   1.358       .  S
C3159      C3164   1.392       .  A
C3159      H3166   1.084       .  S
C3160      C3161   1.405       .  A
C3161      F3168   1.358       .  S
C3162      H3167   1.084       .  S
C3169      C3170   1.402       .  A
C3169      C3174   1.395       .  A
C3169      H3176   1.085       .  S
C3170      C3171   1.403       .  A
C3171      C3172   1.404       .  A
C3171      F3178   1.357       .  S
C3172      C3173   1.410       .  A
C3172      H3177   1.083       .  S
C3173      C3174   1.410       .  A
C3174      F3175   1.358       .  S
C3179      C3180   1.409       .  A
C3179      C3184   1.415       .  A
C3179      H3186   1.083       .  S
C3180      C3181   1.412       .  A
C3181      C3182   1.386       .  A
C3181      F3188   1.358       .  S
C3182      C3183   1.398       .  A
C3182      H3187   1.083       .  S
C3183      C3184   1.411       .  A
C3184      F3185   1.356       .  S
C3189      C3190   1.404       .  A
C3189      C3194   1.403       .  A
C3189      H3196   1.083       .  S
C3190      C3191   1.410       .  A
C3191      C3192   1.400       .  A
C3191      F3198   1.358       .  S
C3192      C3193   1.403       .  A
C3192      H3197   1.084       .  S
C3193      C3194   1.411       .  A
C3194      F3195   1.357       .  S
C3199      C3200   1.403       .  A
C3199      C3204   1.400       .  A
C3199      H3206   1.083       .  S
C3200      C3201   1.413       .  A
C3201      C3202   1.398       .  A
C3201      F3208   1.358       .  S
C3202      C3203   1.400       .  A
C3202      H3207   1.084       .  S
C3203      C3204   1.410       .  A
C3204      F3205   1.358       .  S
C3209      C3214   1.389       .  A
C3209      H3216   1.083       .  S
C3210      C3211   1.405       .  A
C3211      F3218   1.358       .  S
C3212      C3213   1.403       .  A
C3212      H3217   1.084       .  S
C3213      C3214   1.402       .  A
C3214      F3215   1.358       .  S
C3219      C3224   1.399       .  A
C3219      H3226   1.083       .  S
C3220      C3221   1.409       .  A
C3221      F3228   1.357       .  S
C3222      C3223   1.406       .  A
C3222      H3227   1.083       .  S
C3223      C3224   1.408       .  A
C3224      F3225   1.358       .  S
C3229      H3236   1.083       .  S
C3230      C3231   1.403       .  A
C3231      C3232   1.395       .  A
C3231      F3238   1.358       .  S
C3232      C3233   1.407       .  A
C3232      H3237   1.083       .  S
C3233      C3234   1.413       .  A
C3239      C3240   1.408       .  A
C3239      C3244   1.400       .  A
C3239      H3246   1.083       .  S
C3240      C3241   1.413       .  A
C3241      C3242   1.396       .  A
C3242      C3243   1.400       .  A
C3243      C3244   1.404       .  A
C3244      F3245   1.357       .  S
C3249      C3250   1.405       .  A
C3249      C3254   1.398       .  A
C3249      H3256   1.083       .  S
C3250      C3251   1.409       .  A
C3251      C3252   1.398       .  A
C3251      F3258   1.358       .  S
C3252      C3253   1.404       .  A
C3252      H3257   1.083       .  S
C3253      C3254   1.408       .  A
C3254      F3255   1.358       .  S
C3259      C3260   1.402       .  A
C3259      C3264   1.391       .  A
C3259      H3266   1.084       .  S
C3260      C3261   1.404       .  A
C3261      C3262   1.392       .  A
C3261      F3268   1.358       .  S
C3262      C3263   1.404       .  A
C3262      H3267   1.084       .  S
C3263      C3264   1.406       .  A
C3264      F3265   1.358       .  S
C3269      C3270   1.407       .  A
C3269      C3274   1.398   1_565  A
C3269      H3276   1.084   1_565  S
C3270      C3271   1.400       .  A
C3271      C3272   1.401       .  A
C3271      F3278   1.357       .  S
C3272      C3273   1.411       .  A
C3272      H3277   1.083       .  S
C3273      C3274   1.403   1_565  A
C3279      C3284   1.395       .  A
C3279      H3286   1.084       .  S
C3280      C3281   1.406       .  A
C3281      C3282   1.408       .  A
C3281      F3288   1.357       .  S
C3282      C3283   1.407       .  A
C3282      H3287   1.084       .  S
C3284      F3285   1.358       .  S
C3289      C3294   1.398       .  A
C3289      H3296   1.083       .  S
C3290      C3291   1.409       .  A
C3291      C3292   1.401       .  A
C3291      F3298   1.357       .  S
C3292      C3293   1.403       .  A
C3292      H3297   1.083       .  S
C3294      F3295   1.358   1_545  S
C3299      C3300   1.400       .  A
C3299      C3304   1.397       .  A
C3300      C3301   1.413       .  A
C3301      C3302   1.403       .  A
C3301      F3308   1.357       .  S
C3302      C3303   1.400       .  A
C3302      H3307   1.083       .  S
C3303      C3304   1.410       .  A
C3309      C3314   1.399       .  A
C3309      H3316   1.084       .  S
C3310      C3311   1.409       .  A
C3311      C3312   1.400       .  A
C3311      F3318   1.357       .  S
C3312      H3317   1.084       .  S
C3313      C3314   1.410       .  A
C3314      F3315   1.358       .  S
C3319      C3320   1.403       .  A
C3319      C3324   1.392       .  A
C3319      H3326   1.084       .  S
C3320      C3321   1.405       .  A
C3321      C3322   1.392       .  A
C3321      F3328   1.358       .  S
C3322      C3323   1.404       .  A
C3322      H3327   1.084       .  S
C3323      C3324   1.406       .  A
C3324      F3325   1.358       .  S
