geometry optimzed in LAMMPS
_audit_creation_date              2020-12-01 
_audit_creation_method            'lammps2cif' 
_symmetry_space_group_name_H-M    'P1' 
_symmetry_Int_Tables_number       1 
_symmetry_cell_setting            triclinic 
loop_ 
_symmetry_equiv_pos_as_xyz 
  x,y,z 
_cell_length_a                    52.41085546 
_cell_length_b                    52.346350386611476 
_cell_length_c                    58.32679120335775 
_cell_angle_alpha                 89.90767382266685 
_cell_angle_beta                  90.06209272187014 
_cell_angle_gamma                 90.21082746989494 
loop_ 
_atom_site_label 
_atom_site_type_symbol 
_atom_site_fract_x 
_atom_site_fract_y 
_atom_site_fract_z 
_atom_site_charge 
O1          O  0.37749359  0.68107212  0.15815737    -0.85800
O2          O  0.38134478  0.73021079  0.14285538    -0.82800
C3          C  0.39079237  0.75121215  0.13662377     0.97700
O4          O  0.41268568  0.75176753  0.12736177    -0.82800
O5          O  0.44716972  0.73524277  0.16085147    -0.85500
C6          C  0.45968389  0.72046385  0.17366839     1.02200
O7          O  0.46129563  0.69702992  0.16889753    -0.78200
O8          O  0.41210312  0.68304064  0.17944338    -0.78400
C9          C  0.38821925  0.68060332  0.17770082     1.02200
O10         O  0.39312077  0.66343121  0.11351264    -0.85800
O11         O  0.39471748  0.71291883  0.09716593    -0.82800
C12         C  0.41508818  0.71624188  0.08571813     0.97700
O13         O  0.43643663  0.71748120  0.09565533    -0.82800
O14         O  0.47392054  0.70455585  0.12643718    -0.85500
C15         C  0.47683328  0.68058241  0.12369038     1.02200
O16         O  0.45907345  0.66543088  0.12915560    -0.78300
O17         O  0.41234153  0.64671956  0.14318609    -0.78400
C18         C  0.39917799  0.64414284  0.12520275     1.02200
Cr19       Cr  0.38923598  0.69717679  0.12845803     1.93700
Cr20       Cr  0.44108316  0.72536126  0.12829658     1.93200
Cr21       Cr  0.43517834  0.67487101  0.15378740     1.39100
O22         O  0.42172568  0.69909832  0.13660528    -1.23500
O23         O  0.41134336  0.68134563  0.82102098    -0.85800
O24         O  0.46030070  0.69415570  0.83199653    -0.82800
C25         C  0.46014933  0.71748227  0.82644997     0.97700
O26         O  0.44696226  0.73301626  0.83790422    -0.82800
O27         O  0.41167178  0.75122370  0.87007932    -0.85500
C28         C  0.38976718  0.75054681  0.86092019     1.02200
O29         O  0.37970747  0.72950494  0.85578877    -0.78200
O30         O  0.37590836  0.68046397  0.84124187    -0.78400
C31         C  0.38738232  0.68003967  0.82206978     1.02200
O32         O  0.40961741  0.64547440  0.85774019    -0.85800
O33         O  0.45637905  0.66411117  0.87248963    -0.82800
C34         C  0.47422914  0.67937215  0.87745329     0.97700
O35         O  0.47149422  0.70325502  0.87410375    -0.82800
O36         O  0.43405105  0.71825892  0.90343807    -0.85500
C37         C  0.41274607  0.71705907  0.91336711     1.02200
O38         O  0.39237698  0.71303072  0.90205306    -0.78300
O39         O  0.39005639  0.66320990  0.88660435    -0.78400
C40         C  0.39592138  0.64352849  0.87544790     1.02200
Cr41       Cr  0.43330299  0.67311295  0.84714037     1.93700
Cr42       Cr  0.43944229  0.72450841  0.87071162     1.93200
Cr43       Cr  0.38712862  0.69676707  0.87094247     1.39100
O44         O  0.41982310  0.69813240  0.86321338    -1.23500
O45         O  0.68478236  0.61886478  0.15596092    -0.85800
O46         O  0.73425546  0.61329035  0.14298740    -0.82800
C47         C  0.75510880  0.60342205  0.13730744     0.97700
O48         O  0.75530140  0.58204805  0.12713407    -0.82800
O49         O  0.73562279  0.54663523  0.15890111    -0.85500
C50         C  0.71948008  0.53413266  0.17045471     1.02200
O51         O  0.69625487  0.53427975  0.16480111    -0.78200
O52         O  0.68319165  0.58319315  0.17577488    -0.78400
C53         C  0.68261633  0.60725325  0.17497725     1.02200
O54         O  0.66875943  0.60608289  0.11020306    -0.85800
O55         O  0.71883860  0.60245323  0.09593946    -0.82800
C56         C  0.72203712  0.58243854  0.08394457     0.97700
O57         O  0.72225483  0.56060840  0.09317239    -0.82800
O58         O  0.70635273  0.52213222  0.12258990    -0.85500
C59         C  0.68241239  0.51918221  0.11973809     1.02200
O60         O  0.66753408  0.53756248  0.12382351    -0.78300
O61         O  0.64918946  0.58498338  0.13746474    -0.78400
C62         C  0.64850400  0.59980040  0.12038378     1.02200
Cr63       Cr  0.70182216  0.60745294  0.12670613     1.93700
Cr64       Cr  0.72789293  0.55447683  0.12608184     1.93200
Cr65       Cr  0.67600026  0.56114758  0.14912594     1.39100
O66         O  0.70178544  0.57443255  0.13364719    -1.23500
O67         O  0.67155445  0.60980697  0.82918290    -0.85800
O68         O  0.69725326  0.56644631  0.81758029    -0.82800
C69         C  0.71455130  0.54977646  0.81784350     0.97700
O70         O  0.72511131  0.54330767  0.83656752    -0.82800
O71         O  0.75463271  0.58364753  0.85267236    -0.85500
C72         C  0.75938280  0.60614000  0.85918626     1.02200
O73         O  0.74342772  0.61814432  0.87109851    -0.78200
O74         O  0.70702097  0.62968796  0.83832864    -0.78400
C75         C  0.68810081  0.62683399  0.82516833     1.02200
O76         O  0.65201729  0.58451645  0.86914339    -0.85800
O77         O  0.67413124  0.53965610  0.85493261    -0.82800
C78         C  0.68374293  0.52833562  0.87198730     0.97700
O79         O  0.70344007  0.53710133  0.88169007    -0.82800
O80         O  0.73390168  0.57571981  0.89873498    -0.85500
C81         C  0.72029832  0.59003066  0.91138913     1.02200
O82         O  0.70434673  0.60527011  0.90265647    -0.78300
O83         O  0.66790361  0.62294989  0.87241423    -0.78400
C84         C  0.64939841  0.60760006  0.87476502     1.02200
Cr85       Cr  0.67596234  0.57568864  0.84411352     1.93700
Cr86       Cr  0.72740558  0.56184210  0.86692052     1.93200
Cr87       Cr  0.70551475  0.61642109  0.87035841     1.39100
O88         O  0.70298270  0.58440980  0.86060497    -1.23500
O89         O  0.62259481  0.30622027  0.15623914    -0.85800
O90         O  0.61671012  0.25689460  0.14222681    -0.82800
C91         C  0.60681616  0.23629148  0.13557969     0.97700
O92         O  0.58545625  0.23657923  0.12538766    -0.82800
O93         O  0.55051608  0.25527325  0.15810533    -0.85500
C94         C  0.53820121  0.27110243  0.17007897     1.02200
O95         O  0.53814134  0.29448273  0.16465501    -0.78200
O96         O  0.58697812  0.30731656  0.17609046    -0.78400
C97         C  0.61096682  0.30816506  0.17521801     1.02200
O98         O  0.61039474  0.32356464  0.11079692    -0.85800
O99         O  0.60606759  0.27369368  0.09566595    -0.82800
C100        C  0.58592987  0.27187056  0.08359830     0.97700
O101        O  0.56419944  0.27143567  0.09287406    -0.82800
O102        O  0.52616395  0.28587380  0.12255687    -0.85500
C103        C  0.52404979  0.30984319  0.11940286     1.02200
O104        O  0.54265561  0.32434646  0.12387631    -0.78300
O105        O  0.58961550  0.34238900  0.13847580    -0.78400
C106        C  0.60424041  0.34365889  0.12128355     1.02200
Cr107      Cr  0.61132584  0.28991349  0.12668664     1.93700
Cr108      Cr  0.55818474  0.26412547  0.12542809     1.93200
Cr109      Cr  0.56538463  0.31525196  0.14946105     1.39100
O110        O  0.57843545  0.28983514  0.13364449    -1.23500
O111        O  0.59677178  0.31545328  0.81854885    -0.85800
O112        O  0.54739873  0.30220267  0.82608618    -0.82800
C113        C  0.54886296  0.27869028  0.82150497     0.97700
O114        O  0.55892725  0.26349090  0.83565583    -0.82800
O115        O  0.59243017  0.24659081  0.86973250    -0.85500
C116        C  0.61430632  0.24679946  0.86040202     1.02200
O117        O  0.62460581  0.26770822  0.85504148    -0.78200
O118        O  0.63052294  0.31697174  0.84083194    -0.78400
C119        C  0.62056409  0.31712892  0.82104853     1.02200
O120        O  0.59503846  0.35193402  0.85501029    -0.85800
O121        O  0.54717523  0.33373863  0.86623183    -0.82800
C122        C  0.52906698  0.31882104  0.87126034     0.97700
O123        O  0.53195641  0.29478876  0.86908326    -0.82800
O124        O  0.56831764  0.28146162  0.90109488    -0.85500
C125        C  0.58946767  0.28189707  0.91142673     1.02200
O126        O  0.61017975  0.28456253  0.90040354    -0.78300
O127        O  0.61371659  0.33458668  0.88477299    -0.78400
C128        C  0.60787261  0.35413931  0.87327110     1.02200
Cr129      Cr  0.57254714  0.32400311  0.84294838     1.93700
Cr130      Cr  0.56448577  0.27354371  0.86829319     1.93200
Cr131      Cr  0.61708891  0.30072362  0.86968100     1.39100
O132        O  0.58473382  0.29951357  0.86057769    -1.23500
O133        O  0.31302781  0.36813809  0.15710621    -0.85800
O134        O  0.26482092  0.37665892  0.14179416    -0.82800
C135        C  0.24472128  0.38740995  0.13523066     0.97700
O136        O  0.24583878  0.40940372  0.12613193    -0.82800
O137        O  0.26280115  0.44117138  0.16195839    -0.85500
C138        C  0.27815001  0.45012650  0.17666051     1.02200
O139        O  0.30174406  0.45126426  0.17236616    -0.78200
O140        O  0.31322241  0.40160582  0.17969708    -0.78400
C141        C  0.31356729  0.37778627  0.17701901     1.02200
O142        O  0.33247827  0.38514095  0.11361706    -0.85800
O143        O  0.28392124  0.39132738  0.09685593    -0.82800
C144        C  0.28375884  0.41242404  0.08604543     0.97700
O145        O  0.28311358  0.43333606  0.09677109    -0.82800
O146        O  0.29590727  0.46810128  0.13014627    -0.85500
C147        C  0.31999651  0.47028321  0.12853904     1.02200
O148        O  0.33413867  0.45148982  0.13300110    -0.78300
O149        O  0.35043426  0.40277649  0.14361790    -0.78400
C150        C  0.35208900  0.39001786  0.12529036     1.02200
Cr151      Cr  0.29840284  0.38289501  0.12798691     1.93700
Cr152      Cr  0.27369370  0.43635986  0.12938694     1.93200
Cr153      Cr  0.32310528  0.42593860  0.15565962     1.39100
O154        O  0.29852082  0.41503353  0.13746292    -1.23500
O155        O  0.31264143  0.40331369  0.81846524    -0.85800
O156        O  0.29957831  0.45283648  0.82814956    -0.82800
C157        C  0.27587611  0.45237017  0.82423912     0.97700
O158        O  0.26118623  0.43998777  0.83736588    -0.82800
O159        O  0.24561361  0.40592309  0.87203351    -0.85500
C160        C  0.24562152  0.38389744  0.86307562     1.02200
O161        O  0.26622427  0.37376482  0.85702347    -0.78200
O162        O  0.31443680  0.36911510  0.84035504    -0.78400
C163        C  0.31429513  0.37940033  0.82059551     1.02200
O164        O  0.35045292  0.40446830  0.85405973    -0.85800
O165        O  0.33203842  0.45146414  0.86727315    -0.82800
C166        C  0.31733346  0.46950852  0.87264324     0.97700
O167        O  0.29330351  0.46671476  0.87064293    -0.82800
O168        O  0.28133716  0.43024240  0.90229666    -0.85500
C169        C  0.28352793  0.40939770  0.91293289     1.02200
O170        O  0.28565944  0.38846737  0.90205536    -0.78300
O171        O  0.33417390  0.38573431  0.88422032    -0.78400
C172        C  0.35329318  0.39182087  0.87234369     1.02200
Cr173      Cr  0.32185508  0.42697952  0.84341455     1.93700
Cr174      Cr  0.27222135  0.43404993  0.86984554     1.93200
Cr175      Cr  0.29982499  0.38184314  0.87030029     1.39100
O176        O  0.29795620  0.41416653  0.86135163    -1.23500
O177        O  0.68300163  0.36694406  0.33967555    -0.85800
O178        O  0.73268056  0.37442118  0.35298672    -0.82800
C179        C  0.75322359  0.38499728  0.35900902     0.97700
O180        O  0.75272763  0.40630965  0.36923039    -0.82800
O181        O  0.73474111  0.43903270  0.33518720    -0.85500
C182        C  0.71888292  0.44833076  0.32123031     1.02200
O183        O  0.69573894  0.45047607  0.32675225    -0.78200
O184        O  0.68256889  0.40134885  0.31813308    -0.78400
C185        C  0.68129117  0.37746543  0.32017823     1.02200
O186        O  0.66616696  0.38214749  0.38429052    -0.85800
O187        O  0.71619321  0.38699780  0.39902422    -0.82800
C188        C  0.71804909  0.40753311  0.41049733     0.97700
O189        O  0.71769174  0.42902015  0.40064745    -0.82800
O190        O  0.70371353  0.46565681  0.36898637    -0.85500
C191        C  0.67976686  0.46814748  0.37170097     1.02200
O192        O  0.66508201  0.44969828  0.36719202    -0.78300
O193        O  0.64751158  0.40183602  0.35566290    -0.78400
C194        C  0.64616984  0.38852068  0.37369921     1.02200
Cr195      Cr  0.69969057  0.38019921  0.36845011     1.93700
Cr196      Cr  0.72530268  0.43348983  0.36790568     1.93200
Cr197      Cr  0.67457343  0.42489709  0.34331855     1.39100
O198        O  0.69968764  0.41280131  0.36019300    -1.23500
O199        O  0.68608113  0.40580374  0.67542844    -0.85800
O200        O  0.69711351  0.45539738  0.66501219    -0.82800
C201        C  0.72054355  0.45564155  0.66994533     0.97700
O202        O  0.73623417  0.44364142  0.65758527    -0.82800
O203        O  0.75488643  0.40905862  0.62456576    -0.85500
C204        C  0.75536264  0.38726367  0.63410166     1.02200
O205        O  0.73487114  0.37694812  0.64049704    -0.78200
O206        O  0.68588459  0.37060561  0.65495493    -0.78400
C207        C  0.68550854  0.38181381  0.67418428     1.02200
O208        O  0.64966306  0.40379506  0.63873474    -0.85800
O209        O  0.66630881  0.45170251  0.62510248    -0.82800
C210        C  0.68079337  0.47025187  0.62024506     0.97700
O211        O  0.70487357  0.46790693  0.62242520    -0.82800
O212        O  0.71990636  0.43054774  0.59216985    -0.85500
C213        C  0.71965977  0.40890171  0.58268027     1.02200
O214        O  0.71750837  0.38861576  0.59449643    -0.78300
O215        O  0.66785903  0.38422110  0.60998393    -0.78400
C216        C  0.64802086  0.39026169  0.62086732     1.02200
Cr217      Cr  0.67664701  0.42806830  0.64970380     1.93700
Cr218      Cr  0.72713415  0.43617897  0.62487060     1.93200
Cr219      Cr  0.70165160  0.38276200  0.62547137     1.39100
O220        O  0.70170441  0.41561619  0.63300206    -1.23500
O221        O  0.62566232  0.67864649  0.34080123    -0.85800
O222        O  0.62038580  0.72786082  0.35554853    -0.82800
C223        C  0.61058409  0.74875250  0.36136264     0.97700
O224        O  0.58912053  0.74901893  0.37145893    -0.82800
O225        O  0.55475435  0.73425528  0.33795138    -0.85500
C226        C  0.54461251  0.71995244  0.32317888     1.02200
O227        O  0.54318416  0.69612189  0.32640603    -0.78200
O228        O  0.59246419  0.68244698  0.31821641    -0.78400
C229        C  0.61603356  0.67909651  0.32084219     1.02200
O230        O  0.60779480  0.66122906  0.38469072    -0.85800
O231        O  0.60651843  0.71079059  0.40126325    -0.82800
C232        C  0.58595116  0.71284051  0.41262927     0.97700
O233        O  0.56475967  0.71318348  0.40238199    -0.82800
O234        O  0.52787282  0.70150471  0.37034296    -0.85500
C235        C  0.52455936  0.67740469  0.37125342     1.02200
O236        O  0.54220677  0.66259583  0.36517456    -0.78300
O237        O  0.58989166  0.64445851  0.35421359    -0.78400
C238        C  0.60226817  0.64193713  0.37276001     1.02200
Cr239      Cr  0.61253087  0.69493284  0.36999124     1.93700
Cr240      Cr  0.56061685  0.72253871  0.36989356     1.93200
Cr241      Cr  0.56788648  0.67317996  0.34248409     1.39100
O242        O  0.58028492  0.69679962  0.36100754    -1.23500
O243        O  0.59275827  0.68340099  0.67934846    -0.85800
O244        O  0.54343727  0.69515730  0.67011790    -0.82800
C245        C  0.54545052  0.71837190  0.67570393     0.97700
O246        O  0.55475244  0.73421747  0.66166032    -0.82800
O247        O  0.58809369  0.75213929  0.62790200    -0.85500
C248        C  0.60967827  0.75264553  0.63778529     1.02200
O249        O  0.62024841  0.73218597  0.64364276    -0.78200
O250        O  0.62728994  0.68360991  0.65813912    -0.78400
C251        C  0.61669982  0.68334555  0.67770726     1.02200
O252        O  0.59323199  0.64705222  0.64261226    -0.85800
O253        O  0.54549261  0.66379065  0.63009208    -0.82800
C254        C  0.52683790  0.67785128  0.62501044     0.97700
O255        O  0.52872064  0.70199256  0.62750707    -0.82800
O256        O  0.56543740  0.71658786  0.59623887    -0.85500
C257        C  0.58666720  0.71631867  0.58601452     1.02200
O258        O  0.60737870  0.71480346  0.59734870    -0.78300
O259        O  0.61185200  0.66535869  0.61330492    -0.78400
C260        C  0.60609133  0.64545967  0.62434909     1.02200
Cr261      Cr  0.56964945  0.67414625  0.65416378     1.93700
Cr262      Cr  0.56076435  0.72442395  0.62895649     1.93200
Cr263      Cr  0.61409481  0.69912362  0.62862425     1.39100
O264        O  0.58156218  0.69914468  0.63696440    -1.23500
O265        O  0.31437590  0.62223630  0.34178737    -0.85800
O266        O  0.26477441  0.61712329  0.35550703    -0.82800
C267        C  0.24387352  0.60713578  0.36123068     0.97700
O268        O  0.24357961  0.58551591  0.37109241    -0.82800
O269        O  0.26095181  0.55068418  0.33824854    -0.85500
C270        C  0.27632555  0.53828456  0.32594661     1.02200
O271        O  0.29984395  0.53821739  0.33070406    -0.78200
O272        O  0.31352297  0.58747711  0.32073925    -0.78400
C273        C  0.31544764  0.61140060  0.32236874     1.02200
O274        O  0.33068018  0.60704581  0.38698902    -0.85800
O275        O  0.28108489  0.60441098  0.40188506    -0.82800
C276        C  0.27857483  0.58395997  0.41343798     0.97700
O277        O  0.27758833  0.56251460  0.40363608    -0.82800
O278        O  0.29137625  0.52481974  0.37303641    -0.85500
C279        C  0.31535015  0.52187997  0.37550972     1.02200
O280        O  0.33025062  0.54022414  0.37115399    -0.78300
O281        O  0.34895380  0.58746598  0.35830800    -0.78400
C282        C  0.35055148  0.60078956  0.37631403     1.02200
Cr283      Cr  0.29746405  0.61009576  0.37098030     1.93700
Cr284      Cr  0.27028829  0.55749361  0.37089678     1.93200
Cr285      Cr  0.32128197  0.56441300  0.34654364     1.39100
O286        O  0.29638034  0.57741361  0.36302121    -1.23500
O287        O  0.31391259  0.58924347  0.67962441    -0.85800
O288        O  0.29942816  0.54001923  0.67156346    -0.82800
C289        C  0.27586043  0.54186219  0.67569967     0.97700
O290        O  0.26118542  0.55221825  0.66129159    -0.82800
O291        O  0.24611383  0.58642079  0.62708193    -0.85500
C292        C  0.24652150  0.60849692  0.63606822     1.02200
O293        O  0.26743777  0.61838669  0.64202061    -0.78200
O294        O  0.31686636  0.62275838  0.65708943    -0.78400
C295        C  0.31704270  0.61289984  0.67693859     1.02200
O296        O  0.35097221  0.58660934  0.64357931    -0.85800
O297        O  0.33174437  0.53956110  0.63200427    -0.82800
C298        C  0.31673909  0.52179105  0.62639520     0.97700
O299        O  0.29273960  0.52487878  0.62824916    -0.82800
O300        O  0.28090179  0.56163353  0.59625577    -0.85500
C301        C  0.28244838  0.58276016  0.58591614     1.02200
O302        O  0.28511164  0.60343953  0.59698530    -0.78300
O303        O  0.33436980  0.60501679  0.61337911    -0.78400
C304        C  0.35364477  0.59897236  0.62508596     1.02200
Cr305      Cr  0.32217095  0.56481497  0.65523432     1.93700
Cr306      Cr  0.27217794  0.55782000  0.62889790     1.93200
Cr307      Cr  0.30059765  0.60979588  0.62803929     1.39100
O308        O  0.29830761  0.57753314  0.63723174    -1.23500
O309        O  0.37069518  0.30885201  0.34122684    -0.85800
O310        O  0.37708478  0.26010347  0.35634135    -0.82800
C311        C  0.38787965  0.23942483  0.36132631     0.97700
O312        O  0.41014603  0.23956847  0.36991223    -0.82800
O313        O  0.44285732  0.25742342  0.33540039    -0.85500
C314        C  0.45261802  0.27305548  0.32140416     1.02200
O315        O  0.45414427  0.29641265  0.32647480    -0.78200
O316        O  0.40426384  0.30801193  0.31866948    -0.78400
C317        C  0.38045912  0.30914008  0.32135077     1.02200
O318        O  0.38806025  0.32767450  0.38484728    -0.85800
O319        O  0.39259974  0.27839349  0.40130864    -0.82800
C320        C  0.41368924  0.27636620  0.41189741     0.97700
O321        O  0.43442151  0.27482968  0.40105728    -0.82800
O322        O  0.46967439  0.28927806  0.36892262    -0.85500
C323        C  0.47187929  0.31337442  0.37136203     1.02200
O324        O  0.45345102  0.32779192  0.36634638    -0.78300
O325        O  0.40545082  0.34508376  0.35453825    -0.78400
C326        C  0.39291877  0.34716227  0.37289793     1.02200
Cr327      Cr  0.38474523  0.29351161  0.37031233     1.93700
Cr328      Cr  0.43763796  0.26713405  0.36820352     1.93200
Cr329      Cr  0.42843959  0.31745636  0.34298790     1.39100
O330        O  0.41687331  0.29271689  0.36075699    -1.23500
O331        O  0.40699651  0.31026378  0.67816822    -0.85800
O332        O  0.45713515  0.29897437  0.66896563    -0.82800
C333        C  0.45758242  0.27534594  0.67334747     0.97700
O334        O  0.44569638  0.25984167  0.66062233    -0.82800
O335        O  0.41209395  0.24190402  0.62652714    -0.85500
C336        C  0.39007254  0.24143992  0.63550538     1.02200
O337        O  0.37951944  0.26192728  0.64133894    -0.78200
O338        O  0.37287796  0.31068863  0.65620233    -0.78400
C339        C  0.38307377  0.31119929  0.67594453     1.02200
O340        O  0.40685211  0.34701447  0.64159609    -0.85800
O341        O  0.45494160  0.33037887  0.62913461    -0.82800
C342        C  0.47324137  0.31592315  0.62380556     0.97700
O343        O  0.47111389  0.29187647  0.62653620    -0.82800
O344        O  0.43515376  0.27765511  0.59528984    -0.85500
C345        C  0.41417385  0.27860901  0.58478363     1.02200
O346        O  0.39329247  0.27998854  0.59575310    -0.78300
O347        O  0.38899896  0.32898969  0.61181231    -0.78400
C348        C  0.39419309  0.34871827  0.62319846     1.02200
Cr349      Cr  0.43050331  0.31980216  0.65311410     1.93700
Cr350      Cr  0.43931749  0.26961591  0.62793625     1.93200
Cr351      Cr  0.38625661  0.29521755  0.62689809     1.39100
O352        O  0.41861768  0.29490102  0.63578395    -1.23500
O353        O  0.87516308  0.18240265  0.65510288    -0.85800
O354        O  0.88079292  0.23152952  0.64015277    -0.82800
C355        C  0.89083720  0.25208907  0.63350822     0.97700
O356        O  0.91256890  0.25178066  0.62385183    -0.82800
O357        O  0.94857815  0.23383267  0.65614835    -0.85500
C358        C  0.96096809  0.21822897  0.66834813     1.02200
O359        O  0.95992458  0.19462782  0.66392477    -0.78200
O360        O  0.91034930  0.18329122  0.67563444    -0.78400
C361        C  0.88638247  0.18167577  0.67438539     1.02200
O362        O  0.88861198  0.16457638  0.60999611    -0.85800
O363        O  0.89180643  0.21411420  0.59409727    -0.82800
C364        C  0.91189573  0.21602861  0.58205537     0.97700
O365        O  0.93357713  0.21634833  0.59138845    -0.82800
O366        O  0.97144290  0.20151921  0.62080161    -0.85500
C367        C  0.97300544  0.17736647  0.61830916     1.02200
O368        O  0.95465921  0.16326239  0.62433282    -0.78300
O369        O  0.90775345  0.14664533  0.63916439    -0.78400
C370        C  0.89451232  0.14482421  0.62111632     1.02200
Cr371      Cr  0.88669791  0.19833009  0.62534203     1.93700
Cr372      Cr  0.93991449  0.22408884  0.62382321     1.93200
Cr373      Cr  0.93215911  0.17387576  0.64948438     1.39100
O374        O  0.91950104  0.19880907  0.63272200    -1.23500
O375        O  0.90714798  0.18170071  0.31716322    -0.85800
O376        O  0.95604477  0.19557031  0.32678947    -0.82800
C377        C  0.95443035  0.21880453  0.32116241     0.97700
O378        O  0.94407875  0.23462762  0.33451043    -0.82800
O379        O  0.90963552  0.25228915  0.36754790    -0.85500
C380        C  0.88813846  0.25224621  0.35753834     1.02200
O381        O  0.87812073  0.23145837  0.35147989    -0.78200
O382        O  0.87224080  0.18184564  0.33791214    -0.78400
C383        C  0.88322377  0.18022477  0.31861191     1.02200
O384        O  0.90708414  0.14667395  0.35479051    -0.85800
O385        O  0.95418271  0.16527050  0.36754694    -0.82800
C386        C  0.97256193  0.18003466  0.37204328     0.97700
O387        O  0.96995252  0.20401578  0.36919922    -0.82800
O388        O  0.93229413  0.21788805  0.39987166    -0.85500
C389        C  0.91074562  0.21751910  0.40950808     1.02200
O390        O  0.89040451  0.21520396  0.39779726    -0.78300
O391        O  0.88679295  0.16510352  0.38303012    -0.78400
C392        C  0.89335582  0.14514892  0.37252392     1.02200
Cr393      Cr  0.93011244  0.17418729  0.34292526     1.93700
Cr394      Cr  0.93743940  0.22528975  0.36716247     1.93200
Cr395      Cr  0.88453023  0.19862224  0.36703849     1.39100
O396        O  0.91726118  0.19929554  0.35925763    -1.23500
O397        O  0.12926801  0.81289128  0.65351522    -0.85800
O398        O  0.12220348  0.76368457  0.64006770    -0.82800
C399        C  0.11136459  0.74307797  0.63473688     0.97700
O400        O  0.08936923  0.74338795  0.62559108    -0.82800
O401        O  0.05572333  0.76296795  0.65872660    -0.85500
C402        C  0.04419806  0.77905225  0.67103270     1.02200
O403        O  0.04482947  0.80241422  0.66572173    -0.78200
O404        O  0.09487744  0.81254702  0.67499908    -0.78400
C405        C  0.11877067  0.81350191  0.67310191     1.02200
O406        O  0.11378477  0.82964553  0.60834167    -0.85800
O407        O  0.10928282  0.77979411  0.59403548    -0.82800
C408        C  0.08864834  0.77779758  0.58274408     0.97700
O409        O  0.06737213  0.77797775  0.59280478    -0.82800
O410        O  0.03128597  0.79443736  0.62341037    -0.85500
C411        C  0.02964643  0.81857735  0.62077214     1.02200
O412        O  0.04850292  0.83266969  0.62542477    -0.78300
O413        O  0.09658799  0.84844713  0.63795491    -0.78400
C414        C  0.10844743  0.84969978  0.61914659     1.02200
Cr415      Cr  0.11610791  0.79642275  0.62455108     1.93700
Cr416      Cr  0.06255685  0.77145558  0.62573640     1.93200
Cr417      Cr  0.07218326  0.82213673  0.64973302     1.39100
O418        O  0.08366024  0.79668004  0.63304376    -1.23500
O419        O  0.08900221  0.80880632  0.31666795    -0.85800
O420        O  0.04035568  0.79416955  0.32602969    -0.82800
C421        C  0.04311197  0.77074729  0.32161151     0.97700
O422        O  0.05315799  0.75601985  0.33610024    -0.82800
O423        O  0.08756819  0.74134555  0.36971135    -0.85500
C424        C  0.10890650  0.74158369  0.35938431     1.02200
O425        O  0.11831785  0.76242574  0.35267261    -0.78200
O426        O  0.12304387  0.81206012  0.33834637    -0.78400
C427        C  0.11268834  0.81192693  0.31870481     1.02200
O428        O  0.08732076  0.84564115  0.35300008    -0.85800
O429        O  0.04062443  0.82677956  0.36527867    -0.82800
C430        C  0.02261919  0.81187917  0.37042355     0.97700
O431        O  0.02578854  0.78782080  0.36892226    -0.82800
O432        O  0.06328143  0.77659813  0.40066548    -0.85500
C433        C  0.08482883  0.77725175  0.41029658     1.02200
O434        O  0.10508694  0.77906307  0.39846314    -0.78300
O435        O  0.10646950  0.82872518  0.38276124    -0.78400
C436        C  0.09995951  0.84807403  0.37133674     1.02200
Cr437      Cr  0.06526854  0.81713812  0.34160313     1.93700
Cr438      Cr  0.05882410  0.76730397  0.36822561     1.93200
Cr439      Cr  0.11074263  0.79526833  0.36752805     1.39100
O440        O  0.07830101  0.79331860  0.35931892    -1.23500
O441        O  0.81715666  0.86815713  0.65478311    -0.85800
O442        O  0.76770931  0.87428812  0.64102443    -0.82800
C443        C  0.74703913  0.88440805  0.63498905     0.97700
O444        O  0.74717225  0.90587836  0.62486945    -0.82800
O445        O  0.76302194  0.93904931  0.65921907    -0.85500
C446        C  0.77800046  0.94844792  0.67390910     1.02200
O447        O  0.80146931  0.95085494  0.66939302    -0.78200
O448        O  0.81537844  0.90194749  0.67684763    -0.78400
C449        C  0.81743410  0.87819500  0.67450535     1.02200
O450        O  0.83448026  0.88513712  0.61076330    -0.85800
O451        O  0.78439503  0.88846047  0.59524631    -0.82800
C452        C  0.78230640  0.90910815  0.58390739     0.97700
O453        O  0.78229560  0.93042259  0.59400892    -0.82800
O454        O  0.79475829  0.96704943  0.62641436    -0.85500
C455        C  0.81877884  0.97006580  0.62443229     1.02200
O456        O  0.83353995  0.95197231  0.62949375    -0.78300
O457        O  0.85188922  0.90440159  0.64027868    -0.78400
C458        C  0.85406470  0.89159059  0.62200952     1.02200
Cr459      Cr  0.80068114  0.88160695  0.62599838     1.93700
Cr460      Cr  0.77376136  0.93412619  0.62673431     1.93200
Cr461      Cr  0.82380895  0.92636573  0.65256067     1.39100
O462        O  0.79958941  0.91403187  0.63479458    -1.23500
O463        O  0.80890841  0.90374393  0.31668675    -0.85800
O464        O  0.79685330  0.95340613  0.32588035    -0.82800
C465        C  0.77321332  0.95218259  0.32184836     0.97700
O466        O  0.75832465  0.94218946  0.33631539    -0.82800
O467        O  0.74241855  0.90762874  0.36990438    -0.85500
C468        C  0.74236958  0.88610644  0.35982396     1.02200
O469        O  0.76304982  0.87609331  0.35387475    -0.78200
O470        O  0.81149768  0.86994038  0.33877370    -0.78400
C471        C  0.81127441  0.87995520  0.31897071     1.02200
O472        O  0.84678890  0.90429990  0.35230977    -0.85800
O473        O  0.83002288  0.95218377  0.36464862    -0.82800
C474        C  0.81582640  0.97053668  0.37023056     0.97700
O475        O  0.79163519  0.96797984  0.36922765    -0.82800
O476        O  0.77882928  0.93095207  0.40106926    -0.85500
C477        C  0.77938889  0.90954002  0.41101317     1.02200
O478        O  0.78080924  0.88908827  0.39941367    -0.78300
O479        O  0.83004146  0.88625572  0.38268382    -0.78400
C480        C  0.84924476  0.89137154  0.37052784     1.02200
Cr481      Cr  0.81886099  0.92749767  0.34134344     1.93700
Cr482      Cr  0.76964658  0.93566718  0.36850711     1.93200
Cr483      Cr  0.79608619  0.88294491  0.36817254     1.39100
O484        O  0.79493282  0.91538973  0.35958955    -1.23500
O485        O  0.18332255  0.12296113  0.65328464    -0.85800
O486        O  0.23175498  0.11898006  0.63667121    -0.82800
C487        C  0.25262189  0.10863456  0.63162831     0.97700
O488        O  0.25306483  0.08610779  0.62368796    -0.82800
O489        O  0.23721356  0.05275066  0.65841937    -0.85500
C490        C  0.22253638  0.04034442  0.67146819     1.02200
O491        O  0.19893274  0.03954382  0.66729175    -0.78200
O492        O  0.18648552  0.08954433  0.67608007    -0.78400
C493        C  0.18414347  0.11330717  0.67329772     1.08600
O494        O  0.16424257  0.10409194  0.60978257    -0.85800
O495        O  0.21296008  0.10218237  0.59226590    -0.82800
C496        C  0.21629144  0.08107857  0.58193099     0.97700
O497        O  0.21846474  0.06058401  0.59303997    -0.82800
O498        O  0.20541364  0.02525865  0.62498621    -0.85500
C499        C  0.18138748  0.02288050  0.62239013     1.02200
O500        O  0.16666619  0.04070596  0.62826422    -0.78300
O501        O  0.14816644  0.08765703  0.64101761    -0.78400
C502        C  0.14518632  0.09897890  0.62208012     1.02200
Cr503      Cr  0.19835049  0.10957522  0.62366627     1.93700
Cr504      Cr  0.22667448  0.05781071  0.62575893     1.93200
Cr505      Cr  0.17688309  0.06533568  0.65177797     1.39100
O506        O  0.20073340  0.07770347  0.63355384    -1.23500
O507        O  0.18389651  0.09221884  0.31636871    -0.85800
O508        O  0.19471246  0.04216474  0.32194885    -0.82800
C509        C  0.21823535  0.04308371  0.31736198     0.97700
O510        O  0.23392640  0.05146318  0.33197506    -0.82800
O511        O  0.25251936  0.08197761  0.36763848    -0.85500
C512        C  0.25349754  0.10418807  0.35892540     1.02200
O513        O  0.23324370  0.11550711  0.35355050    -0.78200
O514        O  0.18437594  0.12497731  0.33977800    -0.78400
C515        C  0.18336113  0.11592954  0.31965446     1.02200
O516        O  0.14746822  0.09022154  0.35301261    -0.85800
O517        O  0.16326672  0.04111438  0.36200039    -0.82800
C518        C  0.17720604  0.02205636  0.36599646     0.97700
O519        O  0.20132141  0.02394313  0.36398646    -0.82800
O520        O  0.21648602  0.05749762  0.39784502    -0.85500
C521        C  0.21694219  0.07816681  0.40893539     1.02200
O522        O  0.21560322  0.09952007  0.39856626    -0.78300
O523        O  0.16603665  0.10672962  0.38324835    -0.78400
C524        C  0.14613525  0.10227866  0.37173550     1.02200
Cr525      Cr  0.17419693  0.06720692  0.33984863     1.93700
Cr526      Cr  0.22418063  0.05539426  0.36480620     1.93200
Cr527      Cr  0.19993930  0.10909838  0.36812595     1.39100
O528        O  0.19929360  0.07722348  0.35790910    -1.23500
O529        O  0.81107136  0.08462952  0.17588187    -0.85800
O530        O  0.79848723  0.03532691  0.16535717    -0.82800
C531        C  0.77499255  0.03624348  0.16993678     0.97700
O532        O  0.76011426  0.04826999  0.15678291    -0.82800
O533        O  0.74369632  0.08271527  0.12305908    -0.85500
C534        C  0.74361756  0.10446357  0.13253940     1.02200
O535        O  0.76429208  0.11475544  0.13861791    -0.78200
O536        O  0.81316443  0.11936678  0.15472262    -0.78400
C537        C  0.81332223  0.10849379  0.17416148     1.02200
O538        O  0.84885887  0.08498903  0.14027964    -0.85800
O539        O  0.83073851  0.03793977  0.12627759    -0.82800
C540        C  0.81610280  0.01975415  0.12081856     0.97700
O541        O  0.79200407  0.02248591  0.12243955    -0.82800
O542        O  0.77864606  0.06026000  0.09153334    -0.85500
C543        C  0.77969335  0.08181492  0.08178931     1.02200
O544        O  0.78305413  0.10208510  0.09335665    -0.78300
O545        O  0.83238766  0.10462312  0.11065938    -0.78400
C546        C  0.85163074  0.09841552  0.12241709     1.02200
Cr547      Cr  0.82043043  0.06181671  0.15049269     1.93700
Cr548      Cr  0.77058412  0.05497630  0.12418472     1.93200
Cr549      Cr  0.79795794  0.10756393  0.12485830     1.39100
O550        O  0.79639819  0.07487226  0.13283958    -1.23500
O551        O  0.81506776  0.12063653  0.83770204    -0.85800
O552        O  0.76577698  0.11764848  0.85229515    -0.82800
C553        C  0.74449926  0.10789006  0.85726247     0.97700
O554        O  0.74331662  0.08581773  0.86628461    -0.82800
O555        O  0.75993855  0.04940148  0.83433971    -0.85500
C556        C  0.77500776  0.03632658  0.82229731     1.02200
O557        O  0.79859268  0.03670634  0.82659893    -0.78200
O558        O  0.81182583  0.08645196  0.81605580    -0.78400
C559        C  0.81486660  0.11026203  0.81805294     1.02200
O560        O  0.83200621  0.10420237  0.88247264    -0.85800
O561        O  0.78216373  0.10425976  0.89806088    -0.82800
C562        C  0.77794603  0.08407569  0.90950109     0.97700
O563        O  0.77643875  0.06269702  0.89966211    -0.82800
O564        O  0.79055291  0.02470744  0.86989561    -0.85500
C565        C  0.81458456  0.02172298  0.87198310     1.02200
O566        O  0.82965964  0.03941865  0.86618912    -0.78300
O567        O  0.84863097  0.08600614  0.85237611    -0.78400
C568        C  0.85137382  0.09815601  0.87091451     1.02200
Cr569      Cr  0.79845013  0.10905611  0.86707164     1.93700
Cr570      Cr  0.76953204  0.05725630  0.86686447     1.93200
Cr571      Cr  0.82024948  0.06325439  0.84163029     1.39100
O572        O  0.79596630  0.07658170  0.85871514    -1.23500
O573        O  0.90733067  0.80884148  0.17741463    -0.85800
O574        O  0.95663448  0.79627855  0.16798995    -0.82800
C575        C  0.95659557  0.77274246  0.17278613     0.97700
O576        O  0.94453433  0.75716248  0.16033097    -0.82800
O577        O  0.91058789  0.73882718  0.12715450    -0.85500
C578        C  0.88913615  0.73880578  0.13719796     1.02200
O579        O  0.87901655  0.75959215  0.14283585    -0.78200
O580        O  0.87281129  0.80908888  0.15605650    -0.78400
C581        C  0.88345004  0.81024904  0.17557926     1.02200
O582        O  0.90697825  0.84427574  0.13988027    -0.85800
O583        O  0.95458914  0.82666392  0.12760510    -0.82800
C584        C  0.97302328  0.81205656  0.12322346     0.97700
O585        O  0.97044058  0.78800966  0.12573201    -0.82800
O586        O  0.93356312  0.77340622  0.09470912    -0.85500
C587        C  0.91216320  0.77354184  0.08479423     1.02200
O588        O  0.89170045  0.77552241  0.09635704    -0.78300
O589        O  0.88797367  0.82562853  0.11094779    -0.78400
C590        C  0.89378600  0.84566156  0.12175076     1.02200
Cr591      Cr  0.93037529  0.81716690  0.15189263     1.93700
Cr592      Cr  0.93819110  0.76623236  0.12758785     1.93200
Cr593      Cr  0.88542847  0.79226717  0.12706545     1.39100
O594        O  0.91795801  0.79198931  0.13524172    -1.23500
O595        O  0.87449250  0.81374217  0.84082625    -0.85800
O596        O  0.88014990  0.76394305  0.85320472    -0.82800
C597        C  0.89059141  0.74303534  0.85801106     0.97700
O598        O  0.91237037  0.74287737  0.86756807    -0.82800
O599        O  0.94688508  0.76316413  0.83561261    -0.85500
C600        C  0.95721568  0.77970383  0.82278876     1.02200
O601        O  0.95859052  0.80265778  0.82923669    -0.78200
O602        O  0.90955139  0.81484315  0.82020199    -0.78400
C603        C  0.88564318  0.81536117  0.82160475     1.02200
O604        O  0.88873088  0.82905262  0.88639668    -0.85800
O605        O  0.89248316  0.77864372  0.90001393    -0.82800
C606        C  0.91281899  0.77591705  0.91165069     0.97700
O607        O  0.93433680  0.77580346  0.90188734    -0.82800
O608        O  0.97181622  0.79245660  0.87192009    -0.85500
C609        C  0.97433109  0.81641332  0.87515185     1.02200
O610        O  0.95591576  0.83114013  0.87095293    -0.78300
O611        O  0.90827975  0.84883551  0.85837275    -0.78400
C612        C  0.89435317  0.84941211  0.87601398     1.02200
Cr613      Cr  0.88667546  0.79621613  0.86959609     1.93700
Cr614      Cr  0.93980490  0.77046542  0.86871608     1.93200
Cr615      Cr  0.93206652  0.82243239  0.84608109     1.39100
O616        O  0.91945049  0.79642085  0.86176188    -1.23500
O617        O  0.18342042  0.90745551  0.17446101    -0.85800
O618        O  0.19783451  0.95623828  0.16296142    -0.82800
C619        C  0.22130792  0.95613950  0.16787081     0.97700
O620        O  0.23669691  0.94319220  0.15601616    -0.82800
O621        O  0.25403169  0.90690787  0.12404712    -0.85500
C622        C  0.25360388  0.88528710  0.13395781     1.02200
O623        O  0.23263449  0.87587092  0.14027693    -0.78200
O624        O  0.18295842  0.87195559  0.15433744    -0.78400
C625        C  0.18131318  0.88348712  0.17338812     1.02200
O626        O  0.14847201  0.90629597  0.13705252    -0.85800
O627        O  0.16784600  0.95256803  0.12239373    -0.82800
C628        C  0.18265463  0.97090402  0.11782917     0.97700
O629        O  0.20662953  0.96807471  0.12033753    -0.82800
O630        O  0.21977082  0.92907388  0.09119005    -0.85500
C631        C  0.21867729  0.90739238  0.08187125     1.02200
O632        O  0.21628428  0.88728694  0.09388636    -0.78300
O633        O  0.16644350  0.88544444  0.10898516    -0.78400
C634        C  0.14668037  0.89196158  0.11973300     1.02200
Cr635      Cr  0.17629308  0.92956116  0.14792172     1.93700
Cr636      Cr  0.22740534  0.93520736  0.12357865     1.93200
Cr637      Cr  0.19985435  0.88279904  0.12487731     1.39100
O638        O  0.20121149  0.91571262  0.13203657    -1.23500
O639        O  0.18568790  0.87020675  0.83838581    -0.85800
O640        O  0.23519709  0.87604030  0.85185505    -0.82800
C641        C  0.25597130  0.88588921  0.85813804     0.97700
O642        O  0.25607408  0.90741328  0.86813171    -0.82800
O643        O  0.23960966  0.94182852  0.83467698    -0.85500
C644        C  0.22433117  0.95197399  0.82065017     1.02200
O645        O  0.20084948  0.95341422  0.82528366    -0.78200
O646        O  0.18747393  0.90440250  0.81669345    -0.78400
C647        C  0.18564418  0.88058276  0.81878776     1.02200
O648        O  0.16917124  0.88614114  0.88297058    -0.85800
O649        O  0.21913830  0.88874185  0.89774402    -0.82800
C650        C  0.22063155  0.90905771  0.90946915     0.97700
O651        O  0.22106007  0.93063456  0.89977200    -0.82800
O652        O  0.20835257  0.96802253  0.86828952    -0.85500
C653        C  0.18434179  0.97083651  0.87017698     1.02200
O654        O  0.16955677  0.95257990  0.86540086    -0.78300
O655        O  0.15109442  0.90512704  0.85372428    -0.78400
C656        C  0.14933029  0.89219306  0.87202513     1.02200
Cr657      Cr  0.20251672  0.88286182  0.86718379     1.93700
Cr658      Cr  0.22941540  0.93548420  0.86712763     1.93200
Cr659      Cr  0.17901096  0.92791907  0.84165496     1.39100
O660        O  0.20357652  0.91541918  0.85887090    -1.23500
O661        O  0.09113098  0.18420558  0.17621319    -0.85800
O662        O  0.04160511  0.19474619  0.16563027    -0.82800
C663        C  0.04126522  0.21826686  0.17031516     0.97700
O664        O  0.05292442  0.23396586  0.15759366    -0.82800
O665        O  0.08715235  0.25202973  0.12405777    -0.85500
C666        C  0.10893033  0.25268473  0.13360714     1.02200
O667        O  0.11933079  0.23230128  0.14001902    -0.78200
O668        O  0.12578621  0.18360463  0.15511229    -0.78400
C669        C  0.11506319  0.18329031  0.17462995     1.02200
O670        O  0.09300667  0.14736051  0.13992060    -0.85800
O671        O  0.04508810  0.16314439  0.12625695    -0.82800
C672        C  0.02633087  0.17708853  0.12111361     0.97700
O673        O  0.02821301  0.20129667  0.12319431    -0.82800
O674        O  0.06515470  0.21604709  0.09241042    -0.85500
C675        C  0.08657004  0.21554908  0.08257843     1.02200
O676        O  0.10704140  0.21449410  0.09421881    -0.78300
O677        O  0.11103270  0.16521699  0.11017583    -0.78400
C678        C  0.10563128  0.14547633  0.12154639     1.02200
Cr679      Cr  0.06869320  0.17418949  0.15065145     1.93700
Cr680      Cr  0.05995679  0.22410835  0.12499935     1.93200
Cr681      Cr  0.11326015  0.19902969  0.12541432     1.39100
O682        O  0.08069721  0.19909728  0.13344453    -1.23500
O683        O  0.12756637  0.18223308  0.83811076    -0.85800
O684        O  0.11923088  0.23072492  0.85290266    -0.82800
C685        C  0.10895062  0.25077451  0.86010497     0.97700
O686        O  0.08729605  0.24970560  0.86976800    -0.82800
O687        O  0.05481473  0.23300347  0.83424040    -0.85500
C688        C  0.04607654  0.21755612  0.81949981     1.02200
O689        O  0.04419263  0.19409969  0.82431992    -0.78200
O690        O  0.09364927  0.18246708  0.81613594    -0.78400
C691        C  0.11750973  0.18187142  0.81834621     1.02200
O692        O  0.11125908  0.16350444  0.88220142    -0.85800
O693        O  0.10596665  0.21228055  0.89828512    -0.82800
C694        C  0.08532660  0.21226345  0.90967612     0.97700
O695        O  0.06401113  0.21249768  0.89952975    -0.82800
O696        O  0.02811037  0.19968781  0.86674471    -0.85500
C697        C  0.02589083  0.17551502  0.86839489     1.02200
O698        O  0.04457133  0.16141506  0.86354548    -0.78300
O699        O  0.09306618  0.14540819  0.85252996    -0.78400
C700        C  0.10585070  0.14378480  0.87088118     1.02200
Cr701      Cr  0.11345385  0.19731684  0.86727658     1.93700
Cr702      Cr  0.06005521  0.22198949  0.86690618     1.93200
Cr703      Cr  0.06975704  0.17259140  0.84056762     1.39100
O704        O  0.08109129  0.19713708  0.85851908    -1.23500
C705        C  0.08631986  0.21245976  0.93509481    -0.01700
C706        C  0.10980467  0.21137216  0.94657782    -0.09700
C707        C  0.11098942  0.21177212  0.97050224    -0.18600
C708        C  0.08855133  0.21334623  0.98386614     0.03800
C709        C  0.06473310  0.21386230  0.97214451     0.18000
C710        C  0.06383461  0.21341390  0.94807218    -0.20000
C711        C  0.04189787  0.21494252  0.98449429    -0.21200
C712        C  0.04215273  0.21571503  0.00829129    -0.19800
C713        C  0.06525099  0.21554375  0.02034643     0.19400
C714        C  0.08882882  0.21441565  0.00837924     0.01500
C715        C  0.11157639  0.21454030  0.02151194    -0.14500
C716        C  0.11084372  0.21533211  0.04547280    -0.12200
C717        C  0.08751996  0.21608777  0.05716175     0.01100
C718        C  0.06481881  0.21637929  0.04438498    -0.24400
H719        H  0.12747765  0.21024619  0.93702847     0.09100
H720        H  0.12975390  0.21083348  0.97798938     0.12600
H721        H  0.04551262  0.21395474  0.93943566     0.11400
H722        H  0.02368374  0.21523436  0.97567926     0.12600
H723        H  0.02412102  0.21653642  0.01734008     0.11600
H724        H  0.13023322  0.21400533  0.01381314     0.08700
H725        H  0.12867255  0.21512468  0.05487916     0.11900
H726        H  0.04660803  0.21697754  0.05316919     0.13800
C727        C  0.17305983  0.99605455  0.87573770    -0.01700
C728        C  0.18821489  0.01706470  0.88194461    -0.09700
C729        C  0.17736668  0.04132047  0.88476167    -0.18600
C730        C  0.15097231  0.04536864  0.88095036     0.03800
C731        C  0.13578752  0.02388881  0.87482681     0.18000
C732        C  0.14676095  0.99966256  0.87274281    -0.20000
C733        C  0.10983282  0.02676179  0.86988062    -0.21200
C734        C  0.09876936  0.05077408  0.86975954    -0.19800
C735        C  0.11324200  0.07241398  0.87515184     0.19400
C736        C  0.13925661  0.07001272  0.88181904     0.01500
C737        C  0.15243891  0.09250453  0.88836535    -0.14500
C738        C  0.14086979  0.11648995  0.88642854    -0.12200
C739        C  0.11603079  0.11870467  0.87777283     0.01100
C740        C  0.10205416  0.09656942  0.87297365    -0.24400
H741        H  0.20860403  0.01486674  0.88420222     0.09100
H742        H  0.19022748  0.05669071  0.88910309     0.12600
H743        H  0.13478557  0.98369450  0.86768411     0.11400
H744        H  0.09818417  0.01040101  0.86526574     0.12600
H745        H  0.07884808  0.05247751  0.86500067     0.11600
H746        H  0.17181974  0.09217009  0.89456844     0.08700
H747        H  0.15190336  0.13344329  0.89045422     0.11900
H748        H  0.08263604  0.09823627  0.86669190     0.13800
C749        C  0.11519909  0.12000229  0.11468701    -0.01700
C750        C  0.13788742  0.11709466  0.10221972    -0.09700
C751        C  0.14898463  0.09286323  0.09958521    -0.18600
C752        C  0.13747436  0.07081359  0.10926132     0.03800
C753        C  0.11336934  0.07387608  0.12011458     0.18000
C754        C  0.10270313  0.09816694  0.12283244    -0.20000
C755        C  0.10028733  0.05277794  0.12896545    -0.21200
C756        C  0.11088832  0.02862983  0.12790347    -0.19800
C757        C  0.13518345  0.02506576  0.11859772     0.19400
C758        C  0.14902943  0.04597591  0.10917657     0.01500
C759        C  0.17415369  0.04115403  0.10125865    -0.14500
C760        C  0.18517881  0.01674710  0.10340859    -0.12200
C761        C  0.17119579  0.99630081  0.11273433     0.01100
C762        C  0.14600165  0.00069935  0.11968127    -0.24400
H763        H  0.14772842  0.13370335  0.09546609     0.09100
H764        H  0.16672891  0.09193048  0.09027345     0.12600
H765        H  0.08483649  0.10016989  0.13202816     0.11400
H766        H  0.08181225  0.05500582  0.13704584     0.12600
H767        H  0.10033076  0.01271557  0.13515882     0.11600
H768        H  0.18599933  0.05611676  0.09421178     0.08700
H769        H  0.20475166  0.01395496  0.09806437     0.11900
H770        H  0.13503605  0.98527143  0.12730935     0.13800
C771        C  0.22200476  0.90750027  0.93475061    -0.01700
C772        C  0.22196495  0.88380200  0.94598850    -0.09700
C773        C  0.22219914  0.88240500  0.96991312    -0.18600
C774        C  0.22238627  0.90481980  0.98341554     0.03800
C775        C  0.22274287  0.92876636  0.97183098     0.18000
C776        C  0.22259787  0.92986563  0.94785016    -0.20000
C777        C  0.22297495  0.95160318  0.98419665    -0.21200
C778        C  0.22260433  0.95127274  0.00793304    -0.19800
C779        C  0.22200157  0.92810205  0.01986834     0.19400
C780        C  0.22199350  0.90447303  0.00791595     0.01500
C781        C  0.22134908  0.88169858  0.02107336    -0.14500
C782        C  0.22047143  0.88249834  0.04504846    -0.12200
C783        C  0.22032730  0.90594115  0.05659969     0.01100
C784        C  0.22120895  0.92859011  0.04380180    -0.24400
H785        H  0.22154282  0.86619641  0.93626267     0.09100
H786        H  0.22204235  0.86352758  0.97731126     0.12600
H787        H  0.22261524  0.94832089  0.93936990     0.11400
H788        H  0.22328879  0.96988308  0.97543948     0.12600
H789        H  0.22264901  0.96931579  0.01703302     0.11600
H790        H  0.22135518  0.86300524  0.01335788     0.08700
H791        H  0.21980155  0.86471140  0.05454575     0.11900
H792        H  0.22102024  0.94689333  0.05248870     0.13800
C793        C  0.99958455  0.82774646  0.88119897    -0.01700
C794        C  0.02043245  0.81241540  0.88726578    -0.09700
C795        C  0.04495328  0.82298887  0.88967127    -0.18600
C796        C  0.04954579  0.84927651  0.88543693     0.03800
C797        C  0.02822413  0.86475677  0.87973958     0.18000
C798        C  0.00364042  0.85409050  0.87828059    -0.20000
C799        C  0.03166594  0.89059558  0.87430154    -0.21200
C800        C  0.05600516  0.90109475  0.87298272    -0.19800
C801        C  0.07748889  0.88626601  0.87785785     0.19400
C802        C  0.07456706  0.86051791  0.88529704     0.01500
C803        C  0.09691721  0.84707730  0.89155758    -0.14500
C804        C  0.12116395  0.85806884  0.88871063    -0.12200
C805        C  0.12391153  0.88258484  0.87929128     0.01100
C806        C  0.10193439  0.89682032  0.87456184    -0.24400
H807        H  0.01792777  0.79202383  0.88955784     0.09100
H808        H  0.06014742  0.80992926  0.89379876     0.12600
H809        H  0.98781172  0.86622889  0.87339196     0.11400
H810        H  0.01546921  0.90252431  0.87004523     0.12600
H811        H  0.05806031  0.92086508  0.86772628     0.11600
H812        H  0.09622596  0.82792107  0.89836294     0.08700
H813        H  0.13787569  0.84680438  0.89275323     0.11900
H814        H  0.10389550  0.91600410  0.86770881     0.13800
C815        C  0.99824960  0.82353761  0.11758554    -0.01700
C816        C  0.01916043  0.80841047  0.11140265    -0.09700
C817        C  0.04348037  0.81927063  0.10860940    -0.18600
C818        C  0.04775707  0.84567912  0.11240328     0.03800
C819        C  0.02638807  0.86087494  0.11848401     0.18000
C820        C  0.00205618  0.84987214  0.12057544    -0.20000
C821        C  0.02948049  0.88687912  0.12329434    -0.21200
C822        C  0.05353911  0.89803110  0.12308208    -0.19800
C823        C  0.07505950  0.88360896  0.11752855     0.19400
C824        C  0.07248504  0.85744041  0.11133792     0.01500
C825        C  0.09487862  0.84420455  0.10490072    -0.14500
C826        C  0.11889288  0.85603750  0.10602471    -0.12200
C827        C  0.12134935  0.88125712  0.11375945     0.01100
C828        C  0.09926615  0.89508419  0.11888506    -0.24400
H829        H  0.01683037  0.78800389  0.10913054     0.09100
H830        H  0.05870986  0.80639781  0.10421262     0.12600
H831        H  0.98617180  0.86182577  0.12562089     0.11400
H832        H  0.01323836  0.89854437  0.12792087     0.12600
H833        H  0.05536161  0.91803867  0.12758346     0.11600
H834        H  0.09446260  0.82458753  0.09931516     0.08700
H835        H  0.13572063  0.84496633  0.10200169     0.11900
H836        H  0.10101886  0.91469773  0.12467910     0.13800
C837        C  0.91114652  0.77130369  0.05939226    -0.01700
C838        C  0.88774448  0.77094707  0.04774584    -0.09700
C839        C  0.88680795  0.77019112  0.02376371    -0.18600
C840        C  0.90941931  0.76992005  0.01050337     0.03800
C841        C  0.93310898  0.76979688  0.02242963     0.18000
C842        C  0.93375304  0.77035279  0.04652043    -0.20000
C843        C  0.95610340  0.76958452  0.01025971    -0.21200
C844        C  0.95615872  0.76998038  0.98644340    -0.19800
C845        C  0.93322700  0.77052826  0.97414250     0.19400
C846        C  0.90947815  0.77023760  0.98591246     0.01500
C847        C  0.88694028  0.77070456  0.97249841    -0.14500
C848        C  0.88802541  0.77211057  0.94852083    -0.12200
C849        C  0.91152115  0.77293360  0.93703423     0.01100
C850        C  0.93401762  0.77177748  0.95007621    -0.24400
H851        H  0.86998101  0.77154753  0.05719718     0.09100
H852        H  0.86809503  0.77016271  0.01610948     0.12600
H853        H  0.95203496  0.77055601  0.05524357     0.11400
H854        H  0.97422214  0.76942523  0.01923656     0.12600
H855        H  0.97432096  0.77011801  0.97757069     0.11600
H856        H  0.86818157  0.77028422  0.98002664     0.08700
H857        H  0.87031926  0.77282821  0.93895381     0.11900
H858        H  0.95235685  0.77234004  0.94150160     0.13800
C859        C  0.82554190  0.99669553  0.87886313    -0.01700
C860        C  0.80995861  0.97543897  0.88331746    -0.09700
C861        C  0.82058613  0.95111837  0.88640557    -0.18600
C862        C  0.84726607  0.94723670  0.88473083     0.03800
C863        C  0.86294665  0.96904607  0.88091109     0.18000
C864        C  0.85209466  0.99333981  0.87847951    -0.20000
C865        C  0.88936361  0.96644693  0.87849577    -0.21200
C866        C  0.90054713  0.94247521  0.87872958    -0.19800
C867        C  0.88566777  0.92053352  0.88184723     0.19400
C868        C  0.85893242  0.92253104  0.88567405     0.01500
C869        C  0.84510062  0.89962468  0.88952884    -0.14500
C870        C  0.85709372  0.87578153  0.88817423    -0.12200
C871        C  0.88306821  0.87406782  0.88278841     0.01100
C872        C  0.89732240  0.89652190  0.88025409    -0.24400
H873        H  0.78940315  0.97743675  0.88369743     0.09100
H874        H  0.80738868  0.93559823  0.88924193     0.12600
H875        H  0.86446509  0.00955707  0.87507041     0.11400
H876        H  0.90139627  0.98303627  0.87564607     0.12600
H877        H  0.92095549  0.94106042  0.87604023     0.11600
H878        H  0.82492826  0.89951370  0.89310641     0.08700
H879        H  0.84569940  0.85859315  0.89002792     0.11900
H880        H  0.91746750  0.89523854  0.87616053     0.13800
C881        C  0.00087951  0.16340713  0.87396420    -0.01700
C882        C  0.98062945  0.17756554  0.88308363    -0.09700
C883        C  0.95652239  0.16636464  0.88636662    -0.18600
C884        C  0.95169815  0.14067713  0.88000900     0.03800
C885        C  0.97236039  0.12644245  0.87085184     0.18000
C886        C  0.99661782  0.13763809  0.86844975    -0.20000
C887        C  0.96850170  0.10140312  0.86316847    -0.21200
C888        C  0.94424973  0.09060312  0.86319658    -0.19800
C889        C  0.92336984  0.10425695  0.87160642     0.19400
C890        C  0.92692139  0.12899715  0.88116619     0.01500
C891        C  0.90533210  0.14112597  0.89079111    -0.14500
C892        C  0.88094037  0.13016842  0.88902068    -0.12200
C893        C  0.87731090  0.10696503  0.87749697     0.01100
C894        C  0.89877852  0.09368499  0.86964867    -0.24400
H895        H  0.98332828  0.19750421  0.88741941     0.09100
H896        H  0.94176444  0.17854442  0.89306175     0.12600
H897        H  0.01196969  0.12648802  0.86111412     0.11400
H898        H  0.98419328  0.09042967  0.85622914     0.12600
H899        H  0.94173801  0.07157636  0.85622304     0.11600
H900        H  0.90667976  0.15931463  0.89936443     0.08700
H901        H  0.86469599  0.14061762  0.89553449     0.11900
H902        H  0.89621915  0.07542046  0.86117303     0.13800
C903        C  0.88379886  0.87093882  0.11465861    -0.01700
C904        C  0.85932230  0.87347187  0.10520859    -0.09700
C905        C  0.84801695  0.89763699  0.10294155    -0.18600
C906        C  0.86103479  0.92006418  0.11000947     0.03800
C907        C  0.88658494  0.91732791  0.11791556     0.18000
C908        C  0.89755532  0.89304077  0.12022241    -0.20000
C909        C  0.90080735  0.93876075  0.12442631    -0.21200
C910        C  0.88994916  0.96287564  0.12415363    -0.19800
C911        C  0.86445707  0.96615670  0.11770190     0.19400
C912        C  0.84957112  0.94494708  0.11031119     0.01500
C913        C  0.82367501  0.94954777  0.10461618    -0.14500
C914        C  0.81286853  0.97392079  0.10722008    -0.12200
C915        C  0.82761615  0.99457410  0.11504403     0.01100
C916        C  0.85359318  0.99051279  0.11956317    -0.24400
H917        H  0.84833858  0.85663592  0.10072024     0.09100
H918        H  0.82888699  0.89815754  0.09614431     0.12600
H919        H  0.91664055  0.89124691  0.12725420     0.11400
H920        H  0.92035577  0.93680115  0.13024022     0.12600
H921        H  0.90138327  0.97900914  0.12973736     0.11600
H922        H  0.81111953  0.93449560  0.09887883     0.08700
H923        H  0.79277415  0.97646990  0.10356360     0.11900
H924        H  0.86529601  0.00618625  0.12574534     0.13800
C925        C  0.87752182  0.10813462  0.11661991    -0.01700
C926        C  0.89893117  0.09262202  0.12003285    -0.09700
C927        C  0.92368264  0.10244680  0.11762606    -0.18600
C928        C  0.92792261  0.12857524  0.11250779     0.03800
C929        C  0.90612934  0.14426938  0.10911892     0.18000
C930        C  0.88130089  0.13382583  0.11056934    -0.20000
C931        C  0.90922036  0.17054293  0.10537848    -0.21200
C932        C  0.93336779  0.18177247  0.10590486    -0.19800
C933        C  0.95520711  0.16694154  0.10945768     0.19400
C934        C  0.95286971  0.13997925  0.11186314     0.01500
C935        C  0.97559985  0.12573407  0.11404545    -0.14500
C936        C  0.99935834  0.13786508  0.11565461    -0.12200
C937        C  0.00148911  0.16462869  0.11519370     0.01100
C938        C  0.97929403  0.17899050  0.11131524    -0.24400
H939        H  0.89648797  0.07280491  0.12498703     0.09100
H940        H  0.93911211  0.08937775  0.12090612     0.12600
H941        H  0.86484824  0.14611507  0.10846835     0.11400
H942        H  0.89274362  0.18267146  0.10282463     0.12600
H943        H  0.93493778  0.20228798  0.10376892     0.11600
H944        H  0.97560024  0.10515644  0.11482414     0.08700
H945        H  0.01610582  0.12611326  0.11814002     0.11900
H946        H  0.98059741  0.19964794  0.11054614     0.13800
C947        C  0.77645618  0.08317395  0.05653905    -0.01700
C948        C  0.76782424  0.06162956  0.04458158    -0.09700
C949        C  0.76549701  0.06193739  0.02080185    -0.18600
C950        C  0.77206728  0.08387504  0.00790880     0.03800
C951        C  0.78043554  0.10591644  0.02003763     0.18000
C952        C  0.78225993  0.10549073  0.04415280    -0.20000
C953        C  0.78758161  0.12796515  0.00796054    -0.21200
C954        C  0.78752132  0.12826690  0.98406664    -0.19800
C955        C  0.77997260  0.10664186  0.97163015     0.19400
C956        C  0.77148187  0.08437669  0.98341452     0.01500
C957        C  0.76332785  0.06331165  0.97014900    -0.14500
C958        C  0.76502373  0.06371501  0.94633985    -0.12200
C959        C  0.77455843  0.08515653  0.93473273     0.01100
C960        C  0.78139003  0.10687959  0.94748498    -0.24400
H961        H  0.76293549  0.04421543  0.05365190     0.09100
H962        H  0.75902743  0.04441597  0.01305621     0.12600
H963        H  0.78892657  0.12231740  0.05320659     0.11400
H964        H  0.79385509  0.14490748  0.01705053     0.12600
H965        H  0.79377081  0.14542135  0.97525360     0.11600
H966        H  0.75577914  0.04604049  0.97759827     0.08700
H967        H  0.75903077  0.04687822  0.93696424     0.11900
H968        H  0.78852544  0.12370790  0.93869051     0.13800
C969        C  0.22648230  0.03427679  0.29460231    -0.01700
C970        C  0.24361678  0.01407529  0.29206004    -0.09700
C971        C  0.24747544  0.00292540  0.27048567    -0.18600
C972        C  0.23422975  0.01187381  0.25085866     0.03800
C973        C  0.21832381  0.03365121  0.25351343     0.18000
C974        C  0.21450476  0.04440775  0.27521139    -0.20000
C975        C  0.20529952  0.04389277  0.23471654    -0.21200
C976        C  0.20630009  0.03197196  0.21353245    -0.19800
C977        C  0.22016448  0.00941900  0.21072478     0.19400
C978        C  0.23503094  0.99937860  0.22903186     0.01500
C979        C  0.24873422  0.97650329  0.22494909    -0.14500
C980        C  0.24598360  0.96314722  0.20423503    -0.12200
C981        C  0.22972442  0.97234221  0.18711200     0.01100
C982        C  0.21787596  0.99601948  0.19008146    -0.24400
H983        H  0.25301907  0.00605410  0.30695461     0.09100
H984        H  0.26031089  0.98690864  0.26980776     0.12600
H985        H  0.20133987  0.06019967  0.27721349     0.11400
H986        H  0.19353596  0.06075316  0.23660200     0.12600
H987        H  0.19524410  0.03984481  0.19949720     0.11600
H988        H  0.26075780  0.96789923  0.23779416     0.08700
H989        H  0.25529269  0.94485090  0.20219562     0.11900
H990        H  0.20548067  0.00330379  0.17667668     0.13800
C991        C  0.17999333  0.13254872  0.29956853    -0.01700
C992        C  0.19204811  0.12602001  0.27904213    -0.09700
C993        C  0.18526586  0.13779058  0.25853080    -0.18600
C994        C  0.16547887  0.15604023  0.25781672     0.03800
C995        C  0.15404646  0.16342161  0.27892079     0.18000
C996        C  0.16186899  0.15211284  0.29965795    -0.20000
C997        C  0.13370669  0.18068044  0.27898582    -0.21200
C998        C  0.12324911  0.18930287  0.25845687    -0.19800
C999        C  0.13333787  0.18139679  0.23741617     0.19400
C1000       C  0.15542180  0.16575339  0.23680926     0.01500
C1001       C  0.16574729  0.15955077  0.21511928    -0.14500
C1002       C  0.15331825  0.16656010  0.19492907    -0.12200
C1003       C  0.13028445  0.17989374  0.19569606     0.01100
C1004       C  0.12087091  0.18809878  0.21695077    -0.24400
H1005       H  0.20615440  0.11093406  0.27873498     0.09100
H1006       H  0.19486946  0.13105993  0.24339630     0.12600
H1007       H  0.15227999  0.15691393  0.31554385     0.11400
H1008       H  0.12501623  0.18655543  0.29497874     0.12600
H1009       H  0.10671912  0.20166862  0.25903419     0.11600
H1010       H  0.18313500  0.14887073  0.21315045     0.08700
H1011       H  0.16114981  0.16041585  0.17867348     0.11900
H1012       H  0.10333328  0.19901820  0.21759534     0.13800
C1013       C  0.21800571  0.08002303  0.55651923    -0.01700
C1014       C  0.22132385  0.05649299  0.54535992    -0.09700
C1015       C  0.22249414  0.05503006  0.52146104    -0.18600
C1016       C  0.22036254  0.07720312  0.50774842     0.03800
C1017       C  0.21750370  0.10105005  0.51915854     0.18000
C1018       C  0.21622624  0.10222561  0.54321587    -0.20000
C1019       C  0.21581351  0.12367904  0.50650352    -0.21200
C1020       C  0.21655766  0.12321239  0.48272356    -0.19800
C1021       C  0.21866877  0.10007460  0.47093886     0.19400
C1022       C  0.22069675  0.07666864  0.48318954     0.01500
C1023       C  0.22245199  0.05386152  0.47025528    -0.14500
C1024       C  0.22159802  0.05436803  0.44625488    -0.12200
C1025       C  0.21920925  0.07755666  0.43432626     0.01100
C1026       C  0.21819416  0.10031234  0.44688562    -0.24400
H1027       H  0.22290445  0.03895913  0.55514063     0.09100
H1028       H  0.22505471  0.03627519  0.51424394     0.12600
H1029       H  0.21377815  0.12053252  0.55158464     0.11400
H1030       H  0.21378800  0.14191734  0.51506755     0.12600
H1031       H  0.21506231  0.14110777  0.47345543     0.11600
H1032       H  0.22404966  0.03531817  0.47817236     0.08700
H1033       H  0.22253841  0.03645640  0.43702333     0.11900
H1034       H  0.21640515  0.11838148  0.43792598     0.13800
C1035       C  0.23199136  0.02513295  0.69096828    -0.01700
C1036       C  0.24676943  0.03593669  0.70846181    -0.09700
C1037       C  0.25018680  0.02285558  0.72929690    -0.18600
C1038       C  0.23865719  0.99864375  0.73311712     0.03800
C1039       C  0.22517323  0.98730100  0.71453217     0.18000
C1040       C  0.22221531  0.00045719  0.69381143    -0.20000
C1041       C  0.21332668  0.96349611  0.71706116    -0.21200
C1042       C  0.21316503  0.95124944  0.73812792    -0.19800
C1043       C  0.22503684  0.96241659  0.75711100     0.19400
C1044       C  0.23872309  0.98582542  0.75486806     0.01500
C1045       C  0.25068154  0.99580064  0.77478368    -0.14500
C1046       C  0.24766622  0.98384827  0.79619933    -0.12200
C1047       C  0.23278519  0.96172591  0.79823694     0.01100
C1048       C  0.22214972  0.95081892  0.77859291    -0.24400
H1049       H  0.25435105  0.05510064  0.70656238     0.09100
H1050       H  0.26098506  0.03257395  0.74240952     0.12600
H1051       H  0.21085774  0.99205054  0.68017533     0.11400
H1052       H  0.20325111  0.95472588  0.70284803     0.12600
H1053       H  0.20299826  0.93325833  0.73975024     0.11600
H1054       H  0.26174720  0.01319879  0.77444014     0.08700
H1055       H  0.25582776  0.99262848  0.81134072     0.11900
H1056       H  0.21045614  0.93378741  0.78026717     0.13800
C1057       C  0.13321925  0.17905400  0.79751583    -0.01700
C1058       C  0.15670632  0.16646345  0.79823164    -0.09700
C1059       C  0.16884065  0.15919145  0.77791941    -0.18600
C1060       C  0.15758240  0.16423392  0.75628343     0.03800
C1061       C  0.13509194  0.17929764  0.75578206     0.18000
C1062       C  0.12328728  0.18661829  0.77626193    -0.20000
C1063       C  0.12366691  0.18578217  0.73488810    -0.21200
C1064       C  0.13320658  0.17629692  0.71441506    -0.19800
C1065       C  0.15414751  0.15980873  0.71440483     0.19400
C1066       C  0.16695952  0.15385336  0.73528140     0.01500
C1067       C  0.18743612  0.13635771  0.73438117    -0.14500
C1068       C  0.19366805  0.12402221  0.71394532    -0.12200
C1069       C  0.18039593  0.12938944  0.69368337     0.01100
C1070       C  0.16137856  0.14804311  0.69379914    -0.24400
H1071       H  0.16501321  0.16093697  0.81450756     0.09100
H1072       H  0.18653014  0.14896026  0.77972410     0.12600
H1073       H  0.10556684  0.19719477  0.77562378     0.11400
H1074       H  0.10674377  0.19761135  0.73442910     0.12600
H1075       H  0.12344931  0.18100597  0.69857500     0.11600
H1076       H  0.19814605  0.13084129  0.74935382     0.08700
H1077       H  0.20853197  0.10968336  0.71408203     0.11900
H1078       H  0.15089012  0.15197978  0.67814917     0.13800
C1079       C  0.86830811  0.81485507  0.19640618    -0.01700
C1080       C  0.87666008  0.80516279  0.21748121    -0.09700
C1081       C  0.86457716  0.81202131  0.23782937    -0.18600
C1082       C  0.84416668  0.82959851  0.23775976     0.03800
C1083       C  0.83565814  0.83923786  0.21625168     0.18000
C1084       C  0.84721765  0.83116320  0.19579588    -0.20000
C1085       C  0.81674637  0.85802681  0.21538839    -0.21200
C1086       C  0.80727876  0.86865045  0.23547537    -0.19800
C1087       C  0.81573120  0.85995806  0.25687305     0.19400
C1088       C  0.83316744  0.83930337  0.25832592     0.01500
C1089       C  0.83947230  0.82987839  0.28035401    -0.14500
C1090       C  0.83093131  0.84219875  0.30009764    -0.12200
C1091       C  0.81599716  0.86422619  0.29846870     0.01100
C1092       C  0.80760620  0.87239969  0.27685052    -0.24400
H1093       H  0.89302810  0.79259752  0.21826538     0.09100
H1094       H  0.87255578  0.80433933  0.25340516     0.12600
H1095       H  0.84102313  0.83905810  0.17951922     0.11400
H1096       H  0.81013736  0.86543922  0.19907617     0.12600
H1097       H  0.79356707  0.88403819  0.23426050     0.11600
H1098       H  0.85125648  0.81327390  0.28285652     0.08700
H1099       H  0.83715992  0.83521584  0.31667285     0.11900
H1100       H  0.79531765  0.88893069  0.27553378     0.13800
C1101       C  0.76597785  0.02182167  0.19023804    -0.01700
C1102       C  0.75077331  0.03289250  0.20728272    -0.09700
C1103       C  0.74741045  0.02057808  0.22858268    -0.18600
C1104       C  0.75934690  0.99684025  0.23333098     0.03800
C1105       C  0.77351941  0.98533535  0.21530969     0.18000
C1106       C  0.77651529  0.99774312  0.19421625    -0.20000
C1107       C  0.78583311  0.96200158  0.21865823    -0.21200
C1108       C  0.78553211  0.95023999  0.23990561    -0.19800
C1109       C  0.77284578  0.96147607  0.25833124     0.19400
C1110       C  0.75892836  0.98455158  0.25539097     0.01500
C1111       C  0.74639755  0.99465532  0.27494498    -0.14500
C1112       C  0.74921906  0.98319027  0.29667812    -0.12200
C1113       C  0.76435760  0.96137496  0.29931484     0.01100
C1114       C  0.77530303  0.95028347  0.27998761    -0.24400
H1115       H  0.74267412  0.05167287  0.20461800     0.09100
H1116       H  0.73618767  0.03040923  0.24127518     0.12600
H1117       H  0.78828286  0.98911715  0.18104549     0.11400
H1118       H  0.79650491  0.95314954  0.20490218     0.12600
H1119       H  0.79601128  0.93259252  0.24212359     0.11600
H1120       H  0.73515058  0.01183959  0.27404802     0.08700
H1121       H  0.74075880  0.99214573  0.31155682     0.11900
H1122       H  0.78714066  0.93351185  0.28209565     0.13800
C1123       C  0.77949933  0.90823857  0.55859923    -0.01700
C1124       C  0.77863119  0.88480615  0.54703262    -0.09700
C1125       C  0.77719329  0.88387877  0.52311667    -0.18600
C1126       C  0.77676908  0.90652953  0.50984761     0.03800
C1127       C  0.77697266  0.93025468  0.52170726     0.18000
C1128       C  0.77816561  0.93088987  0.54576527    -0.20000
C1129       C  0.77653020  0.95327263  0.50948881    -0.21200
C1130       C  0.77654159  0.95330872  0.48567106    -0.19800
C1131       C  0.77683123  0.93032551  0.47344777     0.19400
C1132       C  0.77664145  0.90656474  0.48529599     0.01500
C1133       C  0.77675421  0.88395772  0.47200298    -0.14500
C1134       C  0.77748796  0.88496880  0.44803982    -0.12200
C1135       C  0.77802732  0.90844884  0.43645511     0.01100
C1136       C  0.77754176  0.93104409  0.44937518    -0.24400
H1137       H  0.77934972  0.86699781  0.55648913     0.09100
H1138       H  0.77680876  0.86513321  0.51553830     0.12600
H1139       H  0.77861164  0.94917274  0.55447594     0.11400
H1140       H  0.77655934  0.97141654  0.51842145     0.12600
H1141       H  0.77655066  0.97148112  0.47673642     0.11600
H1142       H  0.77644251  0.86518488  0.47958598     0.08700
H1143       H  0.77774037  0.86720493  0.43854806     0.11900
H1144       H  0.77793352  0.94936945  0.44068787     0.13800
C1145       C  0.82176952  0.86278099  0.69515328    -0.01700
C1146       C  0.83787909  0.84158465  0.69469087    -0.09700
C1147       C  0.84608981  0.83041804  0.71515609    -0.18600
C1148       C  0.83844471  0.84041939  0.73664093     0.03800
C1149       C  0.82053033  0.86071052  0.73673588     0.18000
C1150       C  0.81224868  0.87143368  0.71611587    -0.20000
C1151       C  0.81189693  0.87108188  0.75738475    -0.21200
C1152       C  0.82161615  0.86255328  0.77813128    -0.19800
C1153       C  0.84018262  0.84346468  0.77865660     0.19400
C1154       C  0.84863065  0.83182720  0.75795029     0.01500
C1155       C  0.86781902  0.81301022  0.75942864    -0.14500
C1156       C  0.87902686  0.80704669  0.78038188    -0.12200
C1157       C  0.87108056  0.81911141  0.80048813     0.01100
C1158       C  0.85115377  0.83669363  0.79972017    -0.24400
H1159       H  0.84525947  0.83453051  0.67856274     0.09100
H1160       H  0.85901355  0.81456363  0.71356407     0.12600
H1161       H  0.79920982  0.88745718  0.71641154     0.11400
H1162       H  0.79797237  0.88633415  0.75746541     0.12600
H1163       H  0.81506710  0.87142507  0.79382927     0.11600
H1164       H  0.87522310  0.80318385  0.74466580     0.08700
H1165       H  0.89437064  0.79323809  0.78084253     0.11900
H1166       H  0.84527397  0.84622924  0.81534090     0.13800
C1167       C  0.76911573  0.95629642  0.69683352    -0.01700
C1168       C  0.74982475  0.97439220  0.69992476    -0.09700
C1169       C  0.74555565  0.98512384  0.72167635    -0.18600
C1170       C  0.76049802  0.97778211  0.74087257     0.03800
C1171       C  0.77819197  0.95753246  0.73775765     0.18000
C1172       C  0.78244018  0.94731126  0.71594478    -0.20000
C1173       C  0.79276215  0.94855527  0.75613440    -0.21200
C1174       C  0.79162958  0.96048714  0.77728063    -0.19800
C1175       C  0.77632929  0.98202805  0.78037706     0.19400
C1176       C  0.75986159  0.99062752  0.76258766     0.01500
C1177       C  0.74504971  0.01275241  0.76690924    -0.14500
C1178       C  0.74833844  0.02694700  0.78718113    -0.12200
C1179       C  0.76617518  0.01925153  0.80367222     0.01100
C1180       C  0.77896642  0.99607524  0.80063716    -0.24400
H1181       H  0.73909512  0.98131397  0.68531677     0.09100
H1182       H  0.73109829  0.99966617  0.72285237     0.12600
H1183       H  0.79719069  0.93309406  0.71358505     0.11400
H1184       H  0.80597250  0.93288393  0.75387361     0.12600
H1185       H  0.80393465  0.95369968  0.79092794     0.11600
H1186       H  0.73185804  0.02024868  0.75441997     0.08700
H1187       H  0.73814374  0.04474848  0.78927785     0.11900
H1188       H  0.79249186  0.98981485  0.81356940     0.13800
C1189       C  0.03534141  0.76187131  0.29885046    -0.01700
C1190       C  0.01576709  0.74401099  0.29570712    -0.09700
C1191       C  0.00470473  0.74082058  0.27396930    -0.18600
C1192       C  0.01300071  0.75570912  0.25502423     0.03800
C1193       C  0.03453212  0.77193816  0.25826786     0.18000
C1194       C  0.04534409  0.77480198  0.27996494    -0.20000
C1195       C  0.04421861  0.78660809  0.24022832    -0.21200
C1196       C  0.03184689  0.78703221  0.21928109    -0.19800
C1197       C  0.00944934  0.77294207  0.21601091     0.19400
C1198       C  0.99999227  0.75642374  0.23345907     0.01500
C1199       C  0.97711524  0.74275967  0.22893405    -0.14500
C1200       C  0.96344024  0.74675038  0.20853851    -0.12200
C1201       C  0.97232140  0.76429382  0.19225178     0.01100
C1202       C  0.99572308  0.77651839  0.19575717    -0.24400
H1203       H  0.00799335  0.73374171  0.31026080     0.09100
H1204       H  0.98908555  0.72743807  0.27269176     0.12600
H1205       H  0.06065628  0.78849488  0.28249316     0.11400
H1206       H  0.06089160  0.79864498  0.24261794     0.12600
H1207       H  0.03922494  0.79936683  0.20586960     0.11600
H1208       H  0.96885419  0.72970713  0.24119043     0.08700
H1209       H  0.94531194  0.73714484  0.20603731     0.11900
H1210       H  0.00273756  0.78990294  0.18297551     0.13800
C1211       C  0.12771372  0.81727715  0.29797880    -0.01700
C1212       C  0.12149651  0.80508020  0.27739861    -0.09700
C1213       C  0.13254024  0.81287680  0.25680627    -0.18600
C1214       C  0.14971411  0.83376507  0.25612620     0.03800
C1215       C  0.15671273  0.84538008  0.27729073     0.18000
C1216       C  0.14605970  0.83673439  0.29799065    -0.20000
C1217       C  0.17330131  0.86636987  0.27757334    -0.21200
C1218       C  0.18217367  0.87690771  0.25721060    -0.19800
C1219       C  0.17490543  0.86651753  0.23609957     0.19400
C1220       C  0.15921519  0.84432122  0.23520596     0.01500
C1221       C  0.15303081  0.83426763  0.21336717    -0.14500
C1222       C  0.16108136  0.84647907  0.19333654    -0.12200
C1223       C  0.17538525  0.86906328  0.19442458     0.01100
C1224       C  0.18264685  0.87869908  0.21583369    -0.24400
H1225       H  0.10752988  0.78977820  0.27717497     0.09100
H1226       H  0.12645197  0.80280352  0.24165658     0.12600
H1227       H  0.15070988  0.84633972  0.31393622     0.11400
H1228       H  0.17880170  0.87521822  0.29363448     0.12600
H1229       H  0.19438043  0.89364677  0.25796877     0.11600
H1230       H  0.14168748  0.81724549  0.21114845     0.08700
H1231       H  0.15529921  0.83870683  0.17691856     0.11900
H1232       H  0.19401336  0.89603227  0.21672259     0.13800
C1233       C  0.87446266  0.88048827  0.37613188    -0.01700
C1234       C  0.87655604  0.85534453  0.38418081    -0.09700
C1235       C  0.90042532  0.84349956  0.38577993    -0.18600
C1236       C  0.92303257  0.85672860  0.37969559     0.03800
C1237       C  0.92077691  0.88283459  0.37315190     0.18000
C1238       C  0.89667746  0.89420480  0.37097764    -0.20000
C1239       C  0.94256093  0.89737046  0.36837954    -0.21200
C1240       C  0.96661038  0.88643642  0.36949252    -0.19800
C1241       C  0.96940678  0.86043239  0.37446854     0.19400
C1242       C  0.94772253  0.84505922  0.37949662     0.01500
C1243       C  0.95168418  0.81857114  0.38306094    -0.14500
C1244       C  0.97605679  0.80779707  0.38097012    -0.12200
C1245       C  0.99729445  0.82311172  0.37582065     0.01100
C1246       C  0.99377259  0.84955932  0.37334794    -0.24400
H1247       H  0.85956513  0.84439360  0.38822945     0.09100
H1248       H  0.90062104  0.82398266  0.39171394     0.12600
H1249       H  0.89514126  0.91375541  0.36494238     0.11400
H1250       H  0.94098607  0.91734215  0.36366486     0.12600
H1251       H  0.98310102  0.89822328  0.36560622     0.11600
H1252       H  0.93615453  0.80556561  0.38651153     0.08700
H1253       H  0.97815511  0.78732194  0.38281205     0.11900
H1254       H  0.00992900  0.86171734  0.36921502     0.13800
C1255       C  0.10905200  0.87370019  0.37771158    -0.01700
C1256       C  0.09306421  0.89474735  0.37470973    -0.09700
C1257       C  0.10282585  0.91954862  0.37564093    -0.18600
C1258       C  0.12925692  0.92400024  0.37881410     0.03800
C1259       C  0.14516704  0.90251145  0.38294463     0.18000
C1260       C  0.13485658  0.87767618  0.38283075    -0.20000
C1261       C  0.17147217  0.90582447  0.38593924    -0.21200
C1262       C  0.18252256  0.92994508  0.38410127    -0.19800
C1263       C  0.16753022  0.95140068  0.37937456     0.19400
C1264       C  0.14061067  0.94880542  0.37707374     0.01500
C1265       C  0.12633605  0.97105697  0.37238912    -0.14500
C1266       C  0.13830315  0.99466917  0.36953545    -0.12200
C1267       C  0.16490053  0.99711912  0.37120202     0.01100
C1268       C  0.17937970  0.97537622  0.37641028    -0.24400
H1269       H  0.07302975  0.89194044  0.37079310     0.09100
H1270       H  0.08933449  0.93470388  0.37285413     0.12600
H1271       H  0.14731751  0.86132777  0.38487738     0.11400
H1272       H  0.18369714  0.88954241  0.38912992     0.12600
H1273       H  0.20302071  0.93176347  0.38600279     0.11600
H1274       H  0.10589639  0.97087924  0.37050850     0.08700
H1275       H  0.12656050  0.01105582  0.36547805     0.11900
H1276       H  0.19995715  0.97699087  0.37773478     0.13800
C1277       C  0.00490987  0.83078411  0.61486097    -0.01700
C1278       C  0.00201873  0.85725831  0.61755503    -0.09700
C1279       C  0.97810716  0.86873931  0.61566852    -0.18600
C1280       C  0.95599529  0.85409239  0.61098795     0.03800
C1281       C  0.95918350  0.82750887  0.60688967     0.18000
C1282       C  0.98344987  0.81614861  0.60885101    -0.20000
C1283       C  0.93796228  0.81224908  0.60170551    -0.21200
C1284       C  0.91349240  0.82255433  0.60147276    -0.19800
C1285       C  0.90953837  0.84838210  0.60657529     0.19400
C1286       C  0.93079353  0.86463924  0.61104640     0.01500
C1287       C  0.92576562  0.89047764  0.61643621    -0.14500
C1288       C  0.90079181  0.89931837  0.61875182    -0.12200
C1289       C  0.87990636  0.88307030  0.61515595     0.01100
C1290       C  0.88439509  0.85780090  0.60828333    -0.24400
H1291       H  0.01820295  0.86917330  0.62206021     0.09100
H1292       H  0.97753321  0.88906706  0.61846752     0.12600
H1293       H  0.98543333  0.79570644  0.60652482     0.11400
H1294       H  0.94023288  0.79203143  0.59831943     0.12600
H1295       H  0.89745597  0.81004034  0.59792646     0.11600
H1296       H  0.94069053  0.90415690  0.61984977     0.08700
H1297       H  0.89775776  0.91891038  0.62403487     0.11900
H1298       H  0.86831737  0.84500482  0.60577618     0.13800
C1299       C  0.11695488  0.87495584  0.61099965    -0.01700
C1300       C  0.10075604  0.89581380  0.61392423    -0.09700
C1301       C  0.10971034  0.92064233  0.61100520    -0.18600
C1302       C  0.13563261  0.92546721  0.60581922     0.03800
C1303       C  0.15176320  0.90417961  0.60166580     0.18000
C1304       C  0.14212611  0.87910816  0.60372619    -0.20000
C1305       C  0.17774421  0.90807141  0.59712736    -0.21200
C1306       C  0.18843942  0.93244561  0.59854486    -0.19800
C1307       C  0.17328122  0.95356358  0.60399486     0.19400
C1308       C  0.14644726  0.95050144  0.60641663     0.01500
C1309       C  0.13170661  0.97250638  0.61056029    -0.14500
C1310       C  0.14325739  0.99600145  0.61454181    -0.12200
C1311       C  0.16987885  0.99859780  0.61438097     0.01100
C1312       C  0.18479866  0.97751451  0.60809221    -0.24400
H1313       H  0.08120463  0.89289366  0.61940707     0.09100
H1314       H  0.09614074  0.93558257  0.61430119     0.12600
H1315       H  0.15476800  0.86292200  0.60165253     0.11400
H1316       H  0.19012771  0.89200489  0.59364946     0.12600
H1317       H  0.20882600  0.93465990  0.59610991     0.11600
H1318       H  0.11117925  0.97217795  0.61134017     0.08700
H1319       H  0.13111845  0.01206343  0.61863541     0.11900
H1320       H  0.20538460  0.97944322  0.60732949     0.13800
C1321       C  0.08642461  0.77544416  0.43559281    -0.01700
C1322       C  0.11001651  0.77744312  0.44675134    -0.09700
C1323       C  0.11159312  0.77649243  0.47062320    -0.18600
C1324       C  0.08946226  0.77354075  0.48424364     0.03800
C1325       C  0.06558866  0.77116451  0.47281372     0.18000
C1326       C  0.06429647  0.77210369  0.44878860    -0.20000
C1327       C  0.04306993  0.76819775  0.48542014    -0.21200
C1328       C  0.04364112  0.76813439  0.50922579    -0.19800
C1329       C  0.06674960  0.77097125  0.52100754     0.19400
C1330       C  0.09006486  0.77333586  0.50874330     0.01500
C1331       C  0.11286840  0.77579983  0.52158151    -0.14500
C1332       C  0.11240874  0.77675576  0.54550407    -0.12200
C1333       C  0.08930303  0.77518465  0.55746417     0.01100
C1334       C  0.06658526  0.77189237  0.54504436    -0.24400
H1335       H  0.12741723  0.78000645  0.43700038     0.09100
H1336       H  0.13041616  0.77838608  0.47786636     0.12600
H1337       H  0.04590486  0.77046143  0.44037016     0.11400
H1338       H  0.02483134  0.76623878  0.47680673     0.12600
H1339       H  0.02582500  0.76615086  0.51849528     0.11600
H1340       H  0.13137718  0.77731371  0.51367547     0.08700
H1341       H  0.13025542  0.77913155  0.55464810     0.11900
H1342       H  0.04856319  0.77044299  0.55408150     0.13800
C1343       C  0.96732838  0.77331291  0.79986317    -0.01700
C1344       C  0.98774650  0.75648494  0.79693620    -0.09700
C1345       C  0.99941430  0.75377552  0.77537800    -0.18600
C1346       C  0.99073002  0.76777743  0.75605575     0.03800
C1347       C  0.96917808  0.78388793  0.75913704     0.18000
C1348       C  0.95801424  0.78667128  0.78084175    -0.20000
C1349       C  0.95928361  0.79783193  0.74071380    -0.21200
C1350       C  0.97102439  0.79714765  0.71943241    -0.19800
C1351       C  0.99305897  0.78265182  0.71607090     0.19400
C1352       C  0.00300953  0.76721802  0.73404987     0.01500
C1353       C  0.02531186  0.75283929  0.72932520    -0.14500
C1354       C  0.03800678  0.75511669  0.70817069    -0.12200
C1355       C  0.02877667  0.77165715  0.69122293     0.01100
C1356       C  0.00584264  0.78457380  0.69505628    -0.24400
H1357       H  0.99536520  0.74621916  0.81153859     0.09100
H1358       H  0.01546505  0.74100799  0.77442221     0.12600
H1359       H  0.94229130  0.79983841  0.78311296     0.11400
H1360       H  0.94265751  0.80983913  0.74291843     0.12600
H1361       H  0.96324861  0.80870045  0.70567187     0.11600
H1362       H  0.03383708  0.74042003  0.74192156     0.08700
H1363       H  0.05578142  0.74504250  0.70555923     0.11900
H1364       H  0.99851642  0.79724797  0.68187403     0.13800
C1365       C  0.13401925  0.81721640  0.69396134    -0.01700
C1366       C  0.15671751  0.83126120  0.69326279    -0.09700
C1367       C  0.16863656  0.83882075  0.71354395    -0.18600
C1368       C  0.15804616  0.83245062  0.73514052     0.03800
C1369       C  0.13620546  0.81630006  0.73559432     0.18000
C1370       C  0.12441421  0.80894135  0.71510532    -0.20000
C1371       C  0.12557560  0.80851618  0.75647125    -0.21200
C1372       C  0.13546101  0.81745706  0.77704239    -0.19800
C1373       C  0.15580855  0.83480551  0.77713359     0.19400
C1374       C  0.16762080  0.84235089  0.75620223     0.01500
C1375       C  0.18744980  0.86069148  0.75717188    -0.14500
C1376       C  0.19408905  0.87217400  0.77783085    -0.12200
C1377       C  0.18173721  0.86526646  0.79813777     0.01100
C1378       C  0.16342149  0.84583782  0.79792660    -0.24400
H1379       H  0.16456503  0.83756055  0.67702477     0.09100
H1380       H  0.18575711  0.85008645  0.71171370     0.12600
H1381       H  0.10708080  0.79755275  0.71562913     0.11400
H1382       H  0.10911397  0.79592487  0.75687039     0.12600
H1383       H  0.12644943  0.81159384  0.79293328     0.11600
H1384       H  0.19737024  0.86749397  0.74218147     0.08700
H1385       H  0.20852309  0.88703375  0.77786409     0.11900
H1386       H  0.15371228  0.84072146  0.81371156     0.13800
C1387       C  0.86845129  0.17496782  0.29758107    -0.01700
C1388       C  0.84464521  0.16281012  0.29858082    -0.09700
C1389       C  0.83276882  0.15417253  0.27854223    -0.18600
C1390       C  0.84450302  0.15752636  0.25688145     0.03800
C1391       C  0.86759929  0.17178529  0.25594773     0.18000
C1392       C  0.87928599  0.18022214  0.27614889    -0.20000
C1393       C  0.87938469  0.17688394  0.23492523    -0.21200
C1394       C  0.86915068  0.16740990  0.21471405    -0.19800
C1395       C  0.84727043  0.15207180  0.21514272     0.19400
C1396       C  0.83461560  0.14676984  0.23621425     0.01500
C1397       C  0.81352894  0.12980441  0.23579136    -0.14500
C1398       C  0.80604139  0.11793834  0.21542555    -0.12200
C1399       C  0.81866952  0.12337508  0.19487412     0.01100
C1400       C  0.83872799  0.14098251  0.19469205    -0.24400
H1401       H  0.83569328  0.15895542  0.31496246     0.09100
H1402       H  0.81464463  0.14464585  0.28056366     0.12600
H1403       H  0.89730431  0.19034834  0.27519144     0.11400
H1404       H  0.89678889  0.18807341  0.23412142     0.12600
H1405       H  0.87890525  0.17140676  0.19871833     0.11600
H1406       H  0.80323632  0.12441919  0.25104491     0.08700
H1407       H  0.79060046  0.10411600  0.21577505     0.11900
H1408       H  0.84885122  0.14469092  0.17880282     0.13800
C1409       C  0.96390355  0.22601435  0.29830491    -0.01700
C1410       C  0.98306851  0.24432366  0.29488869    -0.09700
C1411       C  0.99469887  0.24694239  0.27326028    -0.18600
C1412       C  0.98720798  0.23127752  0.25455605     0.03800
C1413       C  0.96672537  0.21382911  0.25821558     0.18000
C1414       C  0.95559005  0.21133319  0.27981699    -0.20000
C1415       C  0.95800697  0.19803421  0.24059002    -0.21200
C1416       C  0.96972469  0.19844200  0.21938941    -0.19800
C1417       C  0.99069634  0.21437300  0.21542486     0.19400
C1418       C  0.99968276  0.23136902  0.23267103     0.01500
C1419       C  0.02131609  0.24669161  0.22740188    -0.14500
C1420       C  0.03423687  0.24397680  0.20639364    -0.12200
C1421       C  0.02574239  0.22615441  0.19017182     0.01100
C1422       C  0.00345851  0.21226685  0.19454273    -0.24400
H1423       H  0.98988330  0.25568566  0.30915367     0.09100
H1424       H  0.00983428  0.26085334  0.27177071     0.12600
H1425       H  0.94094195  0.19699537  0.28256721     0.11400
H1426       H  0.94239976  0.18476524  0.24340433     0.12600
H1427       H  0.96285494  0.18553198  0.20621919     0.11600
H1428       H  0.02917356  0.26013888  0.23951235     0.08700
H1429       H  0.05157187  0.25478517  0.20336183     0.11900
H1430       H  0.99670818  0.19858450  0.18192468     0.13800
C1431       C  0.99767756  0.16863694  0.37830116    -0.01700
C1432       C  0.99980254  0.14200675  0.38035641    -0.09700
C1433       C  0.02354319  0.13026723  0.38260963    -0.18600
C1434       C  0.04631491  0.14478337  0.38285699     0.03800
C1435       C  0.04411960  0.17186673  0.38254598     0.18000
C1436       C  0.01997316  0.18352571  0.38011791    -0.20000
C1437       C  0.06612284  0.18706609  0.38400324    -0.21200
C1438       C  0.09025700  0.17597195  0.38501829    -0.19800
C1439       C  0.09311425  0.14938960  0.38388195     0.19400
C1440       C  0.07114436  0.13339118  0.38279187     0.01500
C1441       C  0.07500733  0.10677489  0.38033473    -0.14500
C1442       C  0.09951905  0.09669159  0.37796645    -0.12200
C1443       C  0.12106205  0.11249891  0.37881491     0.01100
C1444       C  0.11779868  0.13877082  0.38252312    -0.24400
H1445       H  0.98299962  0.12993292  0.37948946     0.09100
H1446       H  0.02342898  0.10973596  0.38389417     0.12600
H1447       H  0.01867346  0.20414212  0.37883727     0.11400
H1448       H  0.06468462  0.20771423  0.38406844     0.12600
H1449       H  0.10686420  0.18833398  0.38583296     0.11600
H1450       H  0.05944877  0.09336507  0.37896429     0.08700
H1451       H  0.10164774  0.07642175  0.37477174     0.11900
H1452       H  0.13441081  0.15118337  0.38257734     0.13800
C1453       C  0.82796522  0.99557182  0.37587360    -0.01700
C1454       C  0.85462840  0.99807063  0.37483677    -0.09700
C1455       C  0.86653064  0.02180265  0.37734826    -0.18600
C1456       C  0.85217173  0.04422382  0.38099038     0.03800
C1457       C  0.82521406  0.04161235  0.38288604     0.18000
C1458       C  0.81341049  0.01747292  0.38036451    -0.20000
C1459       C  0.81014088  0.06324529  0.38661226    -0.21200
C1460       C  0.82111451  0.08749856  0.38770935    -0.19800
C1461       C  0.84746778  0.09083438  0.38500142     0.19400
C1462       C  0.86346714  0.06918926  0.38200646     0.01500
C1463       C  0.88993914  0.07362178  0.37917423    -0.14500
C1464       C  0.89972030  0.09842014  0.37755593    -0.12200
C1465       C  0.88373106  0.11966075  0.37943451     0.01100
C1466       C  0.85776388  0.11576526  0.38410367    -0.24400
H1467       H  0.86650585  0.98161490  0.37144501     0.09100
H1468       H  0.88702167  0.02196805  0.37592414     0.12600
H1469       H  0.79280095  0.01590349  0.38120021     0.11400
H1470       H  0.78961361  0.06145992  0.38823067     0.12600
H1471       H  0.80878494  0.10385530  0.39008669     0.11600
H1472       H  0.90349549  0.05836398  0.37722637     0.08700
H1473       H  0.91985927  0.10103675  0.37402343     0.11900
H1474       H  0.84523479  0.13215043  0.38530678     0.13800
C1475       C  0.99718594  0.16503380  0.61092891    -0.01700
C1476       C  0.99874177  0.13825967  0.61003677    -0.09700
C1477       C  0.02228041  0.12599655  0.60819713    -0.18600
C1478       C  0.04522425  0.14018033  0.60724939     0.03800
C1479       C  0.04335936  0.16723134  0.60551003     0.18000
C1480       C  0.01950481  0.17938172  0.60743377    -0.20000
C1481       C  0.06544867  0.18205851  0.60299590    -0.21200
C1482       C  0.08942163  0.17074407  0.60327400    -0.19800
C1483       C  0.09195998  0.14441516  0.60680240     0.19400
C1484       C  0.06991173  0.12866496  0.60882637     0.01500
C1485       C  0.07358629  0.10244150  0.61390156    -0.14500
C1486       C  0.09806997  0.09263291  0.61768047    -0.12200
C1487       C  0.11962814  0.10831453  0.61555116     0.01100
C1488       C  0.11646597  0.13399406  0.60950076    -0.24400
H1489       H  0.98176299  0.12658170  0.61190603     0.09100
H1490       H  0.02198643  0.10539853  0.60809280     0.12600
H1491       H  0.01854885  0.20006796  0.60750084     0.11400
H1492       H  0.06421192  0.20263745  0.60129447     0.12600
H1493       H  0.10615188  0.18284886  0.60171098     0.11600
H1494       H  0.05786364  0.08935039  0.61618312     0.08700
H1495       H  0.10017590  0.07277109  0.62256663     0.11900
H1496       H  0.13311927  0.14629651  0.60837840     0.13800
C1497       C  0.83019506  0.99519822  0.61795270    -0.01700
C1498       C  0.85684907  0.99776493  0.61712376    -0.09700
C1499       C  0.86842391  0.02152959  0.61391667    -0.18600
C1500       C  0.85372299  0.04393272  0.61152099     0.03800
C1501       C  0.82670396  0.04120575  0.61085441     0.18000
C1502       C  0.81520104  0.01700590  0.61412806    -0.20000
C1503       C  0.81136517  0.06279369  0.60769304    -0.21200
C1504       C  0.82218403  0.08712212  0.60632899    -0.19800
C1505       C  0.84860159  0.09057309  0.60849074     0.19400
C1506       C  0.86481931  0.06897011  0.61070786     0.01500
C1507       C  0.89131076  0.07347260  0.61339861    -0.14500
C1508       C  0.90094298  0.09825171  0.61560397    -0.12200
C1509       C  0.88479345  0.11939856  0.61432557     0.01100
C1510       C  0.85877860  0.11552262  0.60979236    -0.24400
H1511       H  0.86904560  0.98132608  0.61960282     0.09100
H1512       H  0.88897070  0.02172104  0.61378877     0.12600
H1513       H  0.79458323  0.01532949  0.61445233     0.11400
H1514       H  0.79078841  0.06091846  0.60680918     0.12600
H1515       H  0.80969052  0.10344811  0.60446380     0.11600
H1516       H  0.90498101  0.05826789  0.61500387     0.08700
H1517       H  0.92111098  0.10090566  0.61901481     0.11900
H1518       H  0.84615971  0.13187702  0.60904678     0.13800
C1519       C  0.91026058  0.21814990  0.55675529    -0.01700
C1520       C  0.88682951  0.21598173  0.54534564    -0.09700
C1521       C  0.88558064  0.21709736  0.52141273    -0.18600
C1522       C  0.90788952  0.22040846  0.50804743     0.03800
C1523       C  0.93155637  0.22291218  0.51977823     0.18000
C1524       C  0.93250484  0.22180507  0.54377698    -0.20000
C1525       C  0.95426286  0.22620394  0.50751886    -0.21200
C1526       C  0.95409701  0.22659603  0.48373399    -0.19800
C1527       C  0.93121827  0.22374177  0.47162422     0.19400
C1528       C  0.90770875  0.22091784  0.48352825     0.01500
C1529       C  0.88517770  0.21837295  0.47031571    -0.14500
C1530       C  0.88611250  0.21781892  0.44636882    -0.12200
C1531       C  0.90943988  0.21985444  0.43479033     0.01100
C1532       C  0.93184853  0.22325299  0.44760134    -0.24400
H1533       H  0.86936067  0.21313223  0.55493281     0.09100
H1534       H  0.86689994  0.21506639  0.51389938     0.12600
H1535       H  0.95079288  0.22356954  0.55235790     0.11400
H1536       H  0.97234183  0.22821460  0.51639269     0.12600
H1537       H  0.97205249  0.22887559  0.47473662     0.11600
H1538       H  0.86656175  0.21648125  0.47795691     0.08700
H1539       H  0.86848409  0.21536014  0.43690640     0.11900
H1540       H  0.95002876  0.22507210  0.43887518     0.13800
C1541       C  0.97773755  0.22639005  0.68749513    -0.01700
C1542       C  0.97065667  0.24533288  0.70317314    -0.09700
C1543       C  0.98419977  0.24841232  0.72386143    -0.18600
C1544       C  0.00506197  0.23233270  0.72944486     0.03800
C1545       C  0.01302033  0.21445515  0.71257309     0.18000
C1546       C  0.99970070  0.21204223  0.69187514    -0.20000
C1547       C  0.03322071  0.19777320  0.71694438    -0.21200
C1548       C  0.04460595  0.19706520  0.73836653    -0.19800
C1549       C  0.03644055  0.21341275  0.75577906     0.19400
C1550       C  0.01737541  0.23208592  0.75146693     0.01500
C1551       C  0.01080827  0.24865271  0.76977782    -0.14500
C1552       C  0.02136204  0.24538679  0.79181379    -0.12200
C1553       C  0.03849346  0.22547352  0.79610716     0.01100
C1554       C  0.04647370  0.21021388  0.77782530    -0.24400
H1555       H  0.95377518  0.25670659  0.70008653     0.09100
H1556       H  0.97720505  0.26261372  0.73563683     0.12600
H1557       H  0.00554023  0.19762542  0.67961470     0.11400
H1558       H  0.03946979  0.18430157  0.70403291     0.12600
H1559       H  0.05939297  0.18306724  0.74154922     0.11600
H1560       H  0.99707582  0.26376936  0.76767524     0.08700
H1561       H  0.01505287  0.25748278  0.80572832     0.11900
H1562       H  0.05983441  0.19485517  0.78105198     0.13800
C1563       C  0.87165665  0.17689675  0.69545713    -0.01700
C1564       C  0.88018276  0.18652254  0.71648684    -0.09700
C1565       C  0.86823980  0.17939766  0.73690490    -0.18600
C1566       C  0.84787937  0.16157186  0.73691045     0.03800
C1567       C  0.83910575  0.15218274  0.71541839     0.18000
C1568       C  0.85049855  0.16051575  0.69495243    -0.20000
C1569       C  0.82009032  0.13336689  0.71453560    -0.21200
C1570       C  0.81081960  0.12237522  0.73458462    -0.19800
C1571       C  0.81961510  0.13068314  0.75597740     0.19400
C1572       C  0.83716261  0.15139152  0.75748056     0.01500
C1573       C  0.84388571  0.16035411  0.77953923    -0.14500
C1574       C  0.83544188  0.14771085  0.79920617    -0.12200
C1575       C  0.82023644  0.12576102  0.79749365     0.01100
C1576       C  0.81166906  0.11783822  0.77588236    -0.24400
H1577       H  0.89653354  0.19923139  0.71717182     0.09100
H1578       H  0.87628063  0.18708334  0.75245274     0.12600
H1579       H  0.84409788  0.15274518  0.67869398     0.11400
H1580       H  0.81325702  0.12620298  0.69821069     0.12600
H1581       H  0.79703723  0.10695109  0.73333718     0.11600
H1582       H  0.85587426  0.17687044  0.78212944     0.08700
H1583       H  0.84183708  0.15447676  0.81579859     0.11900
H1584       H  0.79927365  0.10126795  0.77452921     0.13800
C1585       C  0.27641787  0.12378974  0.63452221    -0.01700
C1586       C  0.29740728  0.12061052  0.61993354    -0.09700
C1587       C  0.31849518  0.13721768  0.62115715    -0.18600
C1588       C  0.31925187  0.15751261  0.63721427     0.03800
C1589       C  0.29832226  0.15978126  0.65259826     0.18000
C1590       C  0.27732446  0.14315360  0.65105585    -0.20000
C1591       C  0.29799779  0.17915000  0.66907054    -0.21200
C1592       C  0.31741240  0.19718863  0.66995837    -0.19800
C1593       C  0.33763839  0.19637164  0.65436727     0.19400
C1594       C  0.33937308  0.17620450  0.63813823     0.01500
C1595       C  0.36064558  0.17636193  0.62311449    -0.14500
C1596       C  0.37827472  0.19668905  0.62316868    -0.12200
C1597       C  0.37528107  0.21733472  0.63820847     0.01100
C1598       C  0.35547835  0.21640279  0.65431870    -0.24400
H1599       H  0.29710848  0.10583938  0.60695224     0.09100
H1600       H  0.33366778  0.13406759  0.60903384     0.12600
H1601       H  0.26127211  0.14563710  0.66255998     0.11400
H1602       H  0.28224647  0.18076466  0.68100480     0.12600
H1603       H  0.31619023  0.21236896  0.68252628     0.11600
H1604       H  0.36364515  0.16149000  0.61064991     0.08700
H1605       H  0.39347882  0.19688906  0.61060685     0.11900
H1606       H  0.35320842  0.23207656  0.66628580     0.13800
C1607       C  0.27795441  0.11819931  0.35561010    -0.01700
C1608       C  0.28030768  0.13466401  0.33677232    -0.09700
C1609       C  0.30045718  0.15208902  0.33518565    -0.18600
C1610       C  0.31889290  0.15416185  0.35281170     0.03800
C1611       C  0.31745944  0.13635212  0.37124730     0.18000
C1612       C  0.29721927  0.11838421  0.37238493    -0.20000
C1613       C  0.33556905  0.13742691  0.38892604    -0.21200
C1614       C  0.35439252  0.15637189  0.38918483    -0.19800
C1615       C  0.35552618  0.17497976  0.37189801     0.19400
C1616       C  0.33797647  0.17390313  0.35327412     0.01500
C1617       C  0.33947032  0.19342098  0.33652022    -0.14500
C1618       C  0.35655781  0.21379590  0.33884114    -0.12200
C1619       C  0.37331097  0.21532029  0.35753513     0.01100
C1620       C  0.37329154  0.19534271  0.37365400    -0.24400
H1621       H  0.26587347  0.13465379  0.32345050     0.09100
H1622       H  0.30057302  0.16419717  0.32024216     0.12600
H1623       H  0.29554031  0.10577809  0.38707792     0.11400
H1624       H  0.33481016  0.12386820  0.40297098     0.12600
H1625       H  0.36769572  0.15692874  0.40341285     0.11600
H1626       H  0.32703880  0.19407300  0.32182044     0.08700
H1627       H  0.35622500  0.22891692  0.32612955     0.11900
H1628       H  0.38594502  0.19648664  0.38833563     0.13800
C1629       C  0.41424534  0.27590490  0.43731952    -0.01700
C1630       C  0.43746762  0.27311943  0.44901579    -0.09700
C1631       C  0.43845014  0.27364056  0.47292106    -0.18600
C1632       C  0.41605922  0.27701407  0.48608262     0.03800
C1633       C  0.39257009  0.27995592  0.47416171     0.18000
C1634       C  0.39185720  0.27928389  0.45007677    -0.20000
C1635       C  0.36988782  0.28364350  0.48633311    -0.21200
C1636       C  0.36992609  0.28420135  0.51016315    -0.19800
C1637       C  0.39263601  0.28099448  0.52245044     0.19400
C1638       C  0.41608038  0.27749351  0.51059423     0.01500
C1639       C  0.43848167  0.27448085  0.52381230    -0.14500
C1640       C  0.43757202  0.27471218  0.54769348    -0.12200
C1641       C  0.41441758  0.27793444  0.55936463     0.01100
C1642       C  0.39200066  0.28118284  0.54657190    -0.24400
H1643       H  0.45512538  0.27065222  0.43965010     0.09100
H1644       H  0.45704386  0.27142357  0.48051292     0.12600
H1645       H  0.37380259  0.28166211  0.44125723     0.11400
H1646       H  0.35194181  0.28604621  0.47735108     0.12600
H1647       H  0.35201004  0.28700752  0.51905409     0.11600
H1648       H  0.45702567  0.27183739  0.51628088     0.08700
H1649       H  0.45526321  0.27232448  0.55706456     0.11900
H1650       H  0.37401399  0.28393964  0.55537262     0.13800
C1651       C  0.22276691  0.62379744  0.63877094    -0.01700
C1652       C  0.20131035  0.61976254  0.62479873    -0.09700
C1653       C  0.18048660  0.63663528  0.62539526    -0.18600
C1654       C  0.18045938  0.65813301  0.64014961     0.03800
C1655       C  0.20162253  0.66110046  0.65523433     0.18000
C1656       C  0.22234407  0.64417469  0.65434548    -0.20000
C1657       C  0.20249111  0.68147343  0.67069713    -0.21200
C1658       C  0.18340540  0.69975733  0.67083320    -0.19800
C1659       C  0.16305918  0.69831713  0.65535612     0.19400
C1660       C  0.16084151  0.67728249  0.64006670     0.01500
C1661       C  0.13971243  0.67710444  0.62482798    -0.14500
C1662       C  0.12254712  0.69770552  0.62394332    -0.12200
C1663       C  0.12581998  0.71896666  0.63826903     0.01100
C1664       C  0.14561351  0.71855867  0.65445071    -0.24400
H1665       H  0.20103959  0.60409586  0.61269469     0.09100
H1666       H  0.16492080  0.63271567  0.61380807     0.12600
H1667       H  0.23861851  0.64730997  0.66551026     0.11400
H1668       H  0.21840015  0.68363661  0.68243334     0.12600
H1669       H  0.18503151  0.71563905  0.68265913     0.11600
H1670       H  0.13653935  0.66174932  0.61284913     0.08700
H1671       H  0.10745423  0.69755043  0.61124429     0.11900
H1672       H  0.14819840  0.73476929  0.66579949     0.13800
C1673       C  0.32779287  0.49680206  0.61954373    -0.01700
C1674       C  0.31236683  0.47597529  0.61337538    -0.09700
C1675       C  0.32303223  0.45175537  0.60976625    -0.18600
C1676       C  0.34953634  0.44752217  0.61272689     0.03800
C1677       C  0.36511024  0.46896936  0.61812459     0.18000
C1678       C  0.35427512  0.49319384  0.62101117    -0.20000
C1679       C  0.39132331  0.46599850  0.62178519    -0.21200
C1680       C  0.40223219  0.44188976  0.62175596    -0.19800
C1681       C  0.38730529  0.42021829  0.61753916     0.19400
C1682       C  0.36100542  0.42272322  0.61186506     0.01500
C1683       C  0.34726997  0.40015404  0.60654545    -0.14500
C1684       C  0.35866937  0.37608983  0.60866960    -0.12200
C1685       C  0.38391142  0.37382161  0.61631173     0.01100
C1686       C  0.39833320  0.39596623  0.61997695    -0.24400
H1687       H  0.29189385  0.47822567  0.61194064     0.09100
H1688       H  0.30994461  0.43651620  0.60560846     0.12600
H1689       H  0.36654543  0.50909516  0.62565273     0.11400
H1690       H  0.40330919  0.48234728  0.62568674     0.12600
H1691       H  0.42237684  0.44012944  0.62565452     0.11600
H1692       H  0.32756262  0.40048653  0.60124499     0.08700
H1693       H  0.34725325  0.35914367  0.60558301     0.11900
H1694       H  0.41801883  0.39425996  0.62552975     0.13800
C1695       C  0.22006127  0.62198978  0.35740688    -0.01700
C1696       C  0.19833088  0.61816942  0.37100790    -0.09700
C1697       C  0.17764232  0.63511724  0.36983386    -0.18600
C1698       C  0.17810038  0.65655277  0.35494608     0.03800
C1699       C  0.19949728  0.65925210  0.34014592     0.18000
C1700       C  0.21999792  0.64209174  0.34145924    -0.20000
C1701       C  0.20090434  0.67971664  0.32473425    -0.21200
C1702       C  0.18220098  0.69843079  0.32451666    -0.19800
C1703       C  0.16160316  0.69719296  0.33972261     0.19400
C1704       C  0.15878091  0.67595236  0.35476522     0.01500
C1705       C  0.13732457  0.67573483  0.36954249    -0.14500
C1706       C  0.12034144  0.69640760  0.37024591    -0.12200
C1707       C  0.12413174  0.71789803  0.35627578     0.01100
C1708       C  0.14439019  0.71768302  0.34055545    -0.24400
H1709       H  0.19778796  0.60271453  0.38336786     0.09100
H1710       H  0.16189929  0.63139385  0.38124727     0.12600
H1711       H  0.23650960  0.64502637  0.33055741     0.11400
H1712       H  0.21700876  0.68168479  0.31321049     0.12600
H1713       H  0.18428253  0.71441849  0.31282245     0.11600
H1714       H  0.13359769  0.66019268  0.38122108     0.08700
H1715       H  0.10481178  0.69601386  0.38247774     0.11900
H1716       H  0.14736235  0.73403460  0.32941143     0.13800
C1717       C  0.32646842  0.49635576  0.38083046    -0.01700
C1718       C  0.35291201  0.49396201  0.38394551    -0.09700
C1719       C  0.36449770  0.46999438  0.38513847    -0.18600
C1720       C  0.35001005  0.44727810  0.38313922     0.03800
C1721       C  0.32304109  0.44965345  0.38125368     0.18000
C1722       C  0.31156239  0.47399809  0.38014626    -0.20000
C1723       C  0.30776641  0.42770231  0.37980130    -0.21200
C1724       C  0.31867688  0.40347296  0.37983342    -0.19800
C1725       C  0.34520115  0.40050197  0.38093486     0.19400
C1726       C  0.36131127  0.42236768  0.38249620     0.01500
C1727       C  0.38803880  0.41833992  0.38241791    -0.14500
C1728       C  0.39822229  0.39378078  0.38024305    -0.12200
C1729       C  0.38225839  0.37237833  0.37887672     0.01100
C1730       C  0.35576196  0.37581199  0.37962003    -0.24400
H1731       H  0.36496333  0.51079289  0.38477829     0.09100
H1732       H  0.38490875  0.46991462  0.38733110     0.12600
H1733       H  0.29110309  0.47547915  0.37776483     0.11400
H1734       H  0.28720985  0.42928278  0.37841939     0.12600
H1735       H  0.30627533  0.38692686  0.37848962     0.11600
H1736       H  0.40159411  0.43383626  0.38315121     0.08700
H1737       H  0.41873066  0.39150662  0.37920134     0.11900
H1738       H  0.34334317  0.35931213  0.37781690     0.13800
C1739       C  0.27666535  0.58482363  0.43874012    -0.01700
C1740       C  0.26579030  0.56417984  0.45054514    -0.09700
C1741       C  0.26548030  0.56352112  0.47441526    -0.18600
C1742       C  0.27642569  0.58348405  0.48745710     0.03800
C1743       C  0.28670381  0.60484582  0.47546098     0.18000
C1744       C  0.28670538  0.60535662  0.45131657    -0.20000
C1745       C  0.29714397  0.62541021  0.48764857    -0.21200
C1746       C  0.29755340  0.62525185  0.51151441    -0.19800
C1747       C  0.28799872  0.60430198  0.52379945     0.19400
C1748       C  0.27758987  0.58296177  0.51192801     0.01500
C1749       C  0.26925711  0.56180144  0.52506178    -0.14500
C1750       C  0.27091443  0.56194459  0.54890231    -0.12200
C1751       C  0.28064032  0.58320123  0.56059297     0.01100
C1752       C  0.28909860  0.60439196  0.54790953    -0.24400
H1753       H  0.25753497  0.54826687  0.44124133     0.09100
H1754       H  0.25653587  0.54705128  0.48209990     0.12600
H1755       H  0.29514768  0.62143659  0.44231990     0.11400
H1756       H  0.30500152  0.64177256  0.47865716     0.12600
H1757       H  0.30567440  0.64152007  0.52042512     0.11600
H1758       H  0.26171003  0.54462287  0.51745649     0.08700
H1759       H  0.26439262  0.54526003  0.55825189     0.11900
H1760       H  0.29703867  0.62078583  0.55678548     0.13800
C1761       C  0.62409813  0.77675605  0.64137984    -0.01700
C1762       C  0.64022618  0.77906613  0.66046957    -0.09700
C1763       C  0.65805616  0.79892260  0.66200836    -0.18600
C1764       C  0.66087901  0.81691347  0.64405051     0.03800
C1765       C  0.64356177  0.81527943  0.62527410     0.18000
C1766       C  0.62514512  0.79556209  0.62428448    -0.20000
C1767       C  0.64558208  0.83254493  0.60700777    -0.21200
C1768       C  0.66497464  0.85079326  0.60650530    -0.19800
C1769       C  0.68295769  0.85227265  0.62422757     0.19400
C1770       C  0.68093766  0.83564014  0.64348354     0.01500
C1771       C  0.69982024  0.83770539  0.66075676    -0.14500
C1772       C  0.72058383  0.85432906  0.65826580    -0.12200
C1773       C  0.72298234  0.87000537  0.63888462     0.01100
C1774       C  0.70360938  0.86952427  0.62229684    -0.24400
H1775       H  0.63964226  0.76483442  0.67397856     0.09100
H1776       H  0.66996473  0.79908017  0.67707340     0.12600
H1777       H  0.61290728  0.79377673  0.60936695     0.11400
H1778       H  0.63245158  0.83149927  0.59267103     0.12600
H1779       H  0.66632205  0.86340890  0.59180224     0.11600
H1780       H  0.69957379  0.82613441  0.67604465     0.08700
H1781       H  0.73521744  0.85454217  0.67140684     0.11900
H1782       H  0.70542560  0.88145478  0.60716556     0.13800
C1783       C  0.50228364  0.66533735  0.61835195    -0.01700
C1784       C  0.50040596  0.63857089  0.61917448    -0.09700
C1785       C  0.47696322  0.62616821  0.61678062    -0.18600
C1786       C  0.45429538  0.64011641  0.61336923     0.03800
C1787       C  0.45646452  0.66696791  0.61005902     0.18000
C1788       C  0.48026726  0.67939476  0.61291519    -0.20000
C1789       C  0.43470047  0.68122919  0.60462934    -0.21200
C1790       C  0.41075156  0.66957924  0.60347917    -0.19800
C1791       C  0.40777111  0.64360381  0.60874180     0.19400
C1792       C  0.42954197  0.62848110  0.61379475     0.01500
C1793       C  0.42546126  0.60283112  0.62065515    -0.14500
C1794       C  0.40080278  0.59304175  0.62337428    -0.12200
C1795       C  0.37941546  0.60804463  0.61851569     0.01100
C1796       C  0.38305324  0.63304267  0.61039365    -0.24400
H1797       H  0.51707349  0.62699788  0.62260038     0.09100
H1798       H  0.47715193  0.60560959  0.61788121     0.12600
H1799       H  0.48146586  0.70002266  0.61159909     0.11400
H1800       H  0.43614949  0.70160803  0.60157613     0.12600
H1801       H  0.39427704  0.68125564  0.59954986     0.11600
H1802       H  0.44089003  0.59031087  0.62535891     0.08700
H1803       H  0.39841019  0.57377705  0.62987524     0.11900
H1804       H  0.36654893  0.64493933  0.60710244     0.13800
C1805       C  0.62553830  0.77244923  0.35692995    -0.01700
C1806       C  0.64558677  0.77147674  0.34106440    -0.09700
C1807       C  0.66259451  0.79175064  0.33856057    -0.18600
C1808       C  0.66039967  0.81399530  0.35208110     0.03800
C1809       C  0.63949122  0.81554327  0.36754574     0.18000
C1810       C  0.62201281  0.79499014  0.36958152    -0.20000
C1811       C  0.63695983  0.83706932  0.38162608    -0.21200
C1812       C  0.65554030  0.85627576  0.38168328    -0.19800
C1813       C  0.67690678  0.85475294  0.36731900     0.19400
C1814       C  0.67898768  0.83407701  0.35162601     0.01500
C1815       C  0.70012504  0.83389285  0.33666274    -0.14500
C1816       C  0.71951998  0.85194649  0.33866831    -0.12200
C1817       C  0.71870932  0.87108008  0.35546101     0.01100
C1818       C  0.69674015  0.87310749  0.36912610    -0.24400
H1819       H  0.64867423  0.75449525  0.33084570     0.09100
H1820       H  0.67782221  0.78888569  0.32647649     0.12600
H1821       H  0.60662159  0.79597168  0.38194381     0.11400
H1822       H  0.62099135  0.83860815  0.39332181     0.12600
H1823       H  0.65347241  0.87214016  0.39343740     0.11600
H1824       H  0.70259856  0.81974471  0.32348205     0.08700
H1825       H  0.73585214  0.85030589  0.32738877     0.11900
H1826       H  0.69572009  0.88797642  0.38199948     0.13800
C1827       C  0.37582306  0.61070555  0.38336046    -0.01700
C1828       C  0.37860755  0.63599023  0.39081701    -0.09700
C1829       C  0.40284560  0.64724893  0.39243637    -0.18600
C1830       C  0.42508109  0.63334343  0.38674380     0.03800
C1831       C  0.42213316  0.60696301  0.38148397     0.18000
C1832       C  0.39769939  0.59604388  0.37961023    -0.20000
C1833       C  0.44352278  0.59187519  0.37704388    -0.21200
C1834       C  0.46774739  0.60269766  0.37640483    -0.19800
C1835       C  0.47112146  0.62898415  0.37966102     0.19400
C1836       C  0.44995043  0.64471498  0.38518498     0.01500
C1837       C  0.45446518  0.67127396  0.38762034    -0.14500
C1838       C  0.47874371  0.68179707  0.38379906    -0.12200
C1839       C  0.49940634  0.66624074  0.37780473     0.01100
C1840       C  0.49545348  0.63972723  0.37640828    -0.24400
H1841       H  0.36191906  0.64759326  0.39403098     0.09100
H1842       H  0.40355779  0.66699978  0.39760306     0.12600
H1843       H  0.39563276  0.57630581  0.37425553     0.11400
H1844       H  0.44143985  0.57166168  0.37346149     0.12600
H1845       H  0.48385242  0.59056804  0.37240165     0.11600
H1846       H  0.43941501  0.68450836  0.39161963     0.08700
H1847       H  0.48118104  0.70230403  0.38501529     0.11900
H1848       H  0.51118420  0.62737609  0.37177006     0.13800
C1849       C  0.58684244  0.71790420  0.56048300    -0.01700
C1850       C  0.56360113  0.71933186  0.54860950    -0.09700
C1851       C  0.56279435  0.71973151  0.52472707    -0.18600
C1852       C  0.58536817  0.71866974  0.51154618     0.03800
C1853       C  0.60903634  0.71790544  0.52348662     0.18000
C1854       C  0.60959475  0.71743463  0.54772319    -0.20000
C1855       C  0.63194249  0.71741527  0.51111723    -0.21200
C1856       C  0.63183425  0.71723731  0.48719336    -0.19800
C1857       C  0.60881221  0.71723689  0.47494109     0.19400
C1858       C  0.58524464  0.71808605  0.48698633     0.01500
C1859       C  0.56252103  0.71784170  0.47392181    -0.14500
C1860       C  0.56311645  0.71640531  0.45006595    -0.12200
C1861       C  0.58628451  0.71521273  0.43810716     0.01100
C1862       C  0.60915751  0.71595301  0.45072988    -0.24400
H1863       H  0.54568167  0.71990741  0.55782714     0.09100
H1864       H  0.54408428  0.72080429  0.51715482     0.12600
H1865       H  0.62774024  0.71646834  0.55661334     0.11400
H1866       H  0.65010021  0.71702043  0.52001422     0.12600
H1867       H  0.64991309  0.71671128  0.47820934     0.11600
H1868       H  0.54384822  0.71837353  0.48157963     0.08700
H1869       H  0.54510623  0.71595399  0.44094508     0.11900
H1870       H  0.62724185  0.71516690  0.44176166     0.13800
C1871       C  0.77947146  0.37246129  0.63668407    -0.01700
C1872       C  0.79970615  0.37504524  0.62109472    -0.09700
C1873       C  0.82021999  0.35773982  0.62126785    -0.18600
C1874       C  0.82110891  0.33718621  0.63712875     0.03800
C1875       C  0.80109840  0.33554816  0.65354886     0.18000
C1876       C  0.78084738  0.35307825  0.65326006    -0.20000
C1877       C  0.80074228  0.31576439  0.66968694    -0.21200
C1878       C  0.81922906  0.29686170  0.66937279    -0.19800
C1879       C  0.83876035  0.29732367  0.65305333     0.19400
C1880       C  0.84046225  0.31771708  0.63696799     0.01500
C1881       C  0.86104330  0.31716250  0.62118852    -0.14500
C1882       C  0.87838077  0.29665959  0.62082094    -0.12200
C1883       C  0.87573523  0.27604380  0.63606226     0.01100
C1884       C  0.85614765  0.27696332  0.65242015    -0.24400
H1885       H  0.79908853  0.38973878  0.60801380     0.09100
H1886       H  0.83471965  0.36042142  0.60837592     0.12600
H1887       H  0.76543129  0.35096221  0.66552430     0.11400
H1888       H  0.78563044  0.31451384  0.68231971     0.12600
H1889       H  0.81796393  0.28146855  0.68177950     0.11600
H1890       H  0.86386686  0.33205614  0.60864226     0.08700
H1891       H  0.89322146  0.29642108  0.60791771     0.11900
H1892       H  0.85393752  0.26125827  0.66442264     0.13800
C1893       C  0.66935913  0.49554660  0.61474578    -0.01700
C1894       C  0.68466989  0.51644008  0.60844132    -0.09700
C1895       C  0.67432070  0.54102266  0.60645292    -0.18600
C1896       C  0.64826833  0.54564402  0.61127960     0.03800
C1897       C  0.63280315  0.52432376  0.61740695     0.18000
C1898       C  0.64323795  0.49965684  0.61850901    -0.20000
C1899       C  0.60724352  0.52784261  0.62352427    -0.21200
C1900       C  0.59699427  0.55222363  0.62485625    -0.19800
C1901       C  0.61177832  0.57366052  0.61934786     0.19400
C1902       C  0.63726769  0.57069606  0.61147103     0.01500
C1903       C  0.65067662  0.59302583  0.60473113    -0.14500
C1904       C  0.63987612  0.61731939  0.60744726    -0.12200
C1905       C  0.61560334  0.62008346  0.61717369     0.01100
C1906       C  0.60141389  0.59811960  0.62240645    -0.24400
H1907       H  0.70492377  0.51391741  0.60561120     0.09100
H1908       H  0.68739084  0.55621537  0.60208942     0.12600
H1909       H  0.63116402  0.48380166  0.62368180     0.11400
H1910       H  0.59534331  0.51167545  0.62818827     0.12600
H1911       H  0.57743352  0.55434712  0.63054052     0.11600
H1912       H  0.66964169  0.59229060  0.59762318     0.08700
H1913       H  0.65108680  0.63404170  0.60303691     0.11900
H1914       H  0.58240142  0.60011638  0.62950356     0.13800
C1915       C  0.62252922  0.38069685  0.61395652    -0.01700
C1916       C  0.60148788  0.39692438  0.61577460    -0.09700
C1917       C  0.57665194  0.38757209  0.61340527    -0.18600
C1918       C  0.57192407  0.36125029  0.60988043     0.03800
C1919       C  0.59336345  0.34483893  0.60755310     0.18000
C1920       C  0.61840719  0.35477734  0.60899279    -0.20000
C1921       C  0.58963858  0.31844919  0.60518822    -0.21200
C1922       C  0.56522637  0.30787276  0.60644960    -0.19800
C1923       C  0.54382170  0.32346521  0.60945337     0.19400
C1924       C  0.54677489  0.35045859  0.61012009     0.01500
C1925       C  0.52444994  0.36541955  0.61185995    -0.14500
C1926       C  0.50056142  0.35405402  0.61504816    -0.12200
C1927       C  0.49794457  0.32742375  0.61645575     0.01100
C1928       C  0.51958871  0.31222171  0.61268812    -0.24400
H1929       H  0.60427290  0.41696009  0.61974834     0.09100
H1930       H  0.56155804  0.40124654  0.61564245     0.12600
H1931       H  0.63462367  0.34201869  0.60802435     0.11400
H1932       H  0.60580925  0.30577794  0.60333540     0.12600
H1933       H  0.56313145  0.28729293  0.60554977     0.11600
H1934       H  0.52485439  0.38598609  0.61122134     0.08700
H1935       H  0.48415259  0.36633036  0.61724392     0.11900
H1936       H  0.51780798  0.29159057  0.61323606     0.13800
C1937       C  0.87348312  0.27617285  0.35377404    -0.01700
C1938       C  0.85590686  0.27729618  0.33569558    -0.09700
C1939       C  0.83886614  0.29758366  0.33366107    -0.18600
C1940       C  0.83829344  0.31741035  0.35009007     0.03800
C1941       C  0.85683668  0.31688129  0.36792169     0.18000
C1942       C  0.87449535  0.29656896  0.36939421    -0.20000
C1943       C  0.85675127  0.33593318  0.38479075    -0.21200
C1944       C  0.83780133  0.35460278  0.38508542    -0.19800
C1945       C  0.81851972  0.35486635  0.36840965     0.19400
C1946       C  0.81907667  0.33681384  0.35019772     0.01500
C1947       C  0.79958098  0.33816815  0.33347955    -0.14500
C1948       C  0.77911657  0.35486319  0.33595448    -0.12200
C1949       C  0.77753296  0.37132084  0.35477385     0.01100
C1950       C  0.79795172  0.37214897  0.37041026    -0.24400
H1951       H  0.85484841  0.26192917  0.32329957     0.09100
H1952       H  0.82571519  0.29657422  0.31949000     0.12600
H1953       H  0.88789306  0.29580596  0.38355281     0.11400
H1954       H  0.87090767  0.33585737  0.39834760     0.12600
H1955       H  0.83778197  0.36845580  0.39887464     0.11600
H1956       H  0.79907934  0.32598708  0.31862359     0.08700
H1957       H  0.76392279  0.35432745  0.32334591     0.11900
H1958       H  0.79700036  0.38497913  0.38495981     0.13800
C1959       C  0.66858883  0.49330158  0.37797728    -0.01700
C1960       C  0.68416492  0.51454133  0.38254151    -0.09700
C1961       C  0.67360337  0.53889758  0.38540661    -0.18600
C1962       C  0.64698310  0.54290927  0.38329728     0.03800
C1963       C  0.63125307  0.52119430  0.37928539     0.18000
C1964       C  0.64204002  0.49677005  0.37719588    -0.20000
C1965       C  0.60492730  0.52408936  0.37617758    -0.21200
C1966       C  0.59405947  0.54826143  0.37539280    -0.19800
C1967       C  0.60909910  0.57011493  0.37850412     0.19400
C1968       C  0.63552922  0.56772902  0.38370703     0.01500
C1969       C  0.64938534  0.59037731  0.38838492    -0.14500
C1970       C  0.63792453  0.61437000  0.38624210    -0.12200
C1971       C  0.61251580  0.61659806  0.37906582     0.01100
C1972       C  0.59802867  0.59438662  0.37573475    -0.24400
H1973       H  0.70470728  0.51248845  0.38324617     0.09100
H1974       H  0.68684980  0.55437776  0.38822171     0.12600
H1975       H  0.62969689  0.48058212  0.37363906     0.11400
H1976       H  0.59279800  0.50758311  0.37330440     0.12600
H1977       H  0.57380937  0.54988911  0.37192729     0.11600
H1978       H  0.66916814  0.59015036  0.39344745     0.08700
H1979       H  0.64940249  0.63133600  0.38906030     0.11900
H1980       H  0.57822508  0.59603351  0.37053631     0.13800
C1981       C  0.62071703  0.37944308  0.38100286    -0.01700
C1982       C  0.59969339  0.39548994  0.37800032    -0.09700
C1983       C  0.57486958  0.38613663  0.38009674    -0.18600
C1984       C  0.57017784  0.35998657  0.38464174     0.03800
C1985       C  0.59158393  0.34391501  0.38859190     0.18000
C1986       C  0.61659641  0.35386683  0.38721690    -0.20000
C1987       C  0.58790588  0.31775725  0.39257154    -0.21200
C1988       C  0.56358489  0.30695900  0.39140047    -0.19800
C1989       C  0.54224488  0.32210311  0.38660234     0.19400
C1990       C  0.54515297  0.34898854  0.38406501     0.01500
C1991       C  0.52295469  0.36359986  0.38018372    -0.14500
C1992       C  0.49926407  0.35189906  0.37721529    -0.12200
C1993       C  0.49663068  0.32523835  0.37803528     0.01100
C1994       C  0.51813962  0.31047343  0.38350244    -0.24400
H1995       H  0.60249589  0.41530471  0.37316707     0.09100
H1996       H  0.55983927  0.39966258  0.37694735     0.12600
H1997       H  0.63282892  0.34126748  0.38920386     0.11400
H1998       H  0.60406412  0.30538215  0.39574892     0.12600
H1999       H  0.56153632  0.28651025  0.39372825     0.11600
H2000       H  0.52325300  0.38412344  0.37894329     0.08700
H2001       H  0.48300813  0.36392986  0.37346061     0.11900
H2002       H  0.51633253  0.28986874  0.38456551     0.13800
C2003       C  0.72098880  0.40638482  0.43568892    -0.01700
C2004       C  0.71928028  0.38303651  0.44735772    -0.09700
C2005       C  0.72068900  0.38209987  0.47124390    -0.18600
C2006       C  0.72378126  0.40465245  0.48430422     0.03800
C2007       C  0.72638782  0.42817149  0.47228441     0.18000
C2008       C  0.72499313  0.42881385  0.44829557    -0.20000
C2009       C  0.72989763  0.45103985  0.48426351    -0.21200
C2010       C  0.73016423  0.45121244  0.50804981    -0.19800
C2011       C  0.72684321  0.42853288  0.52042358     0.19400
C2012       C  0.72389344  0.40485057  0.50879678     0.01500
C2013       C  0.72059989  0.38255615  0.52223384    -0.14500
C2014       C  0.71965769  0.38385818  0.54612675    -0.12200
C2015       C  0.72203117  0.40733041  0.55744041     0.01100
C2016       C  0.72596904  0.42953328  0.54442365    -0.24400
H2017       H  0.71643395  0.36538207  0.43802170     0.09100
H2018       H  0.71900719  0.36345499  0.47895436     0.12600
H2019       H  0.72664821  0.44698323  0.43944876     0.11400
H2020       H  0.73209542  0.46899021  0.47517126     0.12600
H2021       H  0.73257219  0.46929419  0.51683816     0.11600
H2022       H  0.71831830  0.36384857  0.51481986     0.08700
H2023       H  0.71666521  0.36639561  0.55575582     0.11900
H2024       H  0.72796766  0.44782067  0.55296558     0.13800
C2025       C  0.22179284  0.36893773  0.86014429    -0.01700
C2026       C  0.21934483  0.35298457  0.84104156    -0.09700
C2027       C  0.19906568  0.33581896  0.83915869    -0.18600
C2028       C  0.18062205  0.33348904  0.85672716     0.03800
C2029       C  0.18291864  0.34992158  0.87603645     0.18000
C2030       C  0.20310738  0.36784124  0.87735382    -0.20000
C2031       C  0.16568803  0.34756897  0.89429185    -0.21200
C2032       C  0.14671554  0.32878817  0.89408969    -0.19800
C2033       C  0.14411377  0.31214683  0.87542241     0.19400
C2034       C  0.16069015  0.31471706  0.85623085     0.01500
C2035       C  0.15705014  0.29788049  0.83759156    -0.14500
C2036       C  0.13906446  0.27826958  0.83860185    -0.12200
C2037       C  0.12364016  0.27487216  0.85793545     0.01100
C2038       C  0.12566027  0.29237058  0.87608130    -0.24400
H2039       H  0.23360968  0.35342184  0.82760536     0.09100
H2040       H  0.19896842  0.32400894  0.82405659     0.12600
H2041       H  0.20515499  0.37981123  0.89240529     0.11400
H2042       H  0.16730603  0.35992097  0.90912068     0.12600
H2043       H  0.13416729  0.32708013  0.90877299     0.11600
H2044       H  0.16814580  0.29896899  0.82208783     0.08700
H2045       H  0.13772157  0.26508251  0.82433990     0.11900
H2046       H  0.11395885  0.28970533  0.89122552     0.13800
C2047       C  0.26638688  0.46801637  0.80493809    -0.01700
C2048       C  0.25092759  0.45785813  0.78758117    -0.09700
C2049       C  0.24746457  0.47127409  0.76687871    -0.18600
C2050       C  0.25960153  0.49520216  0.76306040     0.03800
C2051       C  0.27357172  0.50602688  0.78160538     0.18000
C2052       C  0.27668335  0.49250048  0.80213543    -0.20000
C2053       C  0.28572058  0.52969705  0.77921980    -0.21200
C2054       C  0.28576909  0.54227179  0.75830886    -0.19800
C2055       C  0.27371087  0.53145826  0.73925855     0.19400
C2056       C  0.25971796  0.50820288  0.74135061     0.01500
C2057       C  0.24785021  0.49845765  0.72129026    -0.14500
C2058       C  0.25139737  0.51037900  0.69988400    -0.12200
C2059       C  0.26660434  0.53233396  0.69801174     0.01100
C2060       C  0.27692279  0.54315081  0.71783367    -0.24400
H2061       H  0.24282026  0.43890510  0.78944981     0.09100
H2062       H  0.23609234  0.46206826  0.75385651     0.12600
H2063       H  0.28849587  0.50048780  0.81566126     0.11400
H2064       H  0.29610771  0.53811450  0.79342379     0.12600
H2065       H  0.29617459  0.56013766  0.75681112     0.11600
H2066       H  0.23663909  0.48114763  0.72150585     0.08700
H2067       H  0.24343007  0.50165547  0.68463322     0.11900
H2068       H  0.28878961  0.56009219  0.71633219     0.13800
C2069       C  0.31787296  0.36367350  0.79980213    -0.01700
C2070       C  0.33151129  0.34077028  0.80093865    -0.09700
C2071       C  0.33877554  0.32811138  0.78091750    -0.18600
C2072       C  0.33251191  0.33806384  0.75905961     0.03800
C2073       C  0.31629348  0.35973984  0.75812568     0.18000
C2074       C  0.30941799  0.37247986  0.77837642    -0.20000
C2075       C  0.30802648  0.36924838  0.73694483    -0.21200
C2076       C  0.31693974  0.35876191  0.71658773    -0.19800
C2077       C  0.33500719  0.33913987  0.71695427     0.19400
C2078       C  0.34275964  0.32818227  0.73818836     0.01500
C2079       C  0.36197134  0.30927977  0.73770337    -0.14500
C2080       C  0.37431069  0.30306787  0.71726608    -0.12200
C2081       C  0.36722843  0.31464347  0.69658815     0.01100
C2082       C  0.34671759  0.33169955  0.69635166    -0.24400
H2083       H  0.33774161  0.33328032  0.81733047     0.09100
H2084       H  0.34973601  0.31089167  0.78307958     0.12600
H2085       H  0.29817355  0.38980696  0.77741015     0.11400
H2086       H  0.29516639  0.38539271  0.73611482     0.12600
H2087       H  0.31076043  0.36704197  0.70047387     0.11600
H2088       H  0.36897405  0.30009411  0.75300112     0.08700
H2089       H  0.38999554  0.28964349  0.71771224     0.11900
H2090       H  0.34131499  0.34081948  0.68036050     0.13800
C2091       C  0.22039730  0.37293492  0.13746494    -0.01700
C2092       C  0.20022700  0.37579675  0.12185708    -0.09700
C2093       C  0.17946196  0.35865469  0.12200031    -0.18600
C2094       C  0.17833346  0.33808364  0.13785284     0.03800
C2095       C  0.19822859  0.33637223  0.15438621     0.18000
C2096       C  0.21872465  0.35363415  0.15406341    -0.20000
C2097       C  0.19819100  0.31683617  0.17075054    -0.21200
C2098       C  0.17933649  0.29821068  0.17059390    -0.19800
C2099       C  0.16006036  0.29855628  0.15401246     0.19400
C2100       C  0.15884971  0.31866826  0.13760686     0.01500
C2101       C  0.13874112  0.31777339  0.12132681    -0.14500
C2102       C  0.12144298  0.29714889  0.12076670    -0.12200
C2103       C  0.12363810  0.27685853  0.13637490     0.01100
C2104       C  0.14259105  0.27820434  0.15330396    -0.24400
H2105       H  0.20106614  0.39055639  0.10884231     0.09100
H2106       H  0.16491869  0.36152423  0.10917067     0.12600
H2107       H  0.23406648  0.35142401  0.16640848     0.11400
H2108       H  0.21322341  0.31560178  0.18348313     0.12600
H2109       H  0.18022680  0.28301126  0.18321345     0.11600
H2110       H  0.13640220  0.33235986  0.10842753     0.08700
H2111       H  0.10707881  0.29650102  0.10741625     0.11900
H2112       H  0.14438731  0.26270706  0.16557191     0.13800
C2113       C  0.28403296  0.41261215  0.06058718    -0.01700
C2114       C  0.28462749  0.43578941  0.04850075    -0.09700
C2115       C  0.28494858  0.43617837  0.02455516    -0.18600
C2116       C  0.28468801  0.41323078  0.01175544     0.03800
C2117       C  0.28492060  0.38978584  0.02407195     0.18000
C2118       C  0.28439567  0.38967623  0.04817806    -0.20000
C2119       C  0.28574046  0.36654261  0.01226140    -0.21200
C2120       C  0.28622841  0.36602795  0.98841605    -0.19800
C2121       C  0.28531943  0.38872267  0.97572709     0.19400
C2122       C  0.28428969  0.41266092  0.98723051     0.01500
C2123       C  0.28246639  0.43495195  0.97367559    -0.14500
C2124       C  0.28200681  0.43355979  0.94981256    -0.12200
C2125       C  0.28345719  0.40999728  0.93842571     0.01100
C2126       C  0.28516611  0.38760375  0.95157624    -0.24400
H2127       H  0.28487365  0.45382477  0.05758421     0.09100
H2128       H  0.28562412  0.45475705  0.01660239     0.12600
H2129       H  0.28435285  0.37160656  0.05728686     0.11400
H2130       H  0.28610394  0.34859537  0.02154494     0.12600
H2131       H  0.28697927  0.34770183  0.97982941     0.11600
H2132       H  0.28102556  0.45378382  0.98096954     0.08700
H2133       H  0.28058153  0.45123728  0.94022410     0.11900
H2134       H  0.28620687  0.36925515  0.94304045     0.13800
C2135       C  0.26972449  0.45912356  0.19936252    -0.01700
C2136       C  0.25218457  0.47900156  0.20194562    -0.09700
C2137       C  0.24876473  0.49063740  0.22343259    -0.18600
C2138       C  0.26278013  0.48243346  0.24290954     0.03800
C2139       C  0.27895217  0.46086796  0.24026457     0.18000
C2140       C  0.28247319  0.44980265  0.21867991    -0.20000
C2141       C  0.29243450  0.45101617  0.25895941    -0.21200
C2142       C  0.29128936  0.46288611  0.28013421    -0.19800
C2143       C  0.27720342  0.48528300  0.28294309     0.19400
C2144       C  0.26232693  0.49527943  0.26460899     0.01500
C2145       C  0.24901225  0.51842513  0.26853846    -0.14500
C2146       C  0.25188309  0.53184314  0.28924869    -0.12200
C2147       C  0.26780277  0.52237214  0.30653885     0.01100
C2148       C  0.27937380  0.49858391  0.30362655    -0.24400
H2149       H  0.24217999  0.48645345  0.18713293     0.09100
H2150       H  0.23553150  0.50633299  0.22421984     0.12600
H2151       H  0.29605076  0.43438420  0.21667900     0.11400
H2152       H  0.30445784  0.43434578  0.25705236     0.12600
H2153       H  0.30247435  0.45514305  0.29414736     0.11600
H2154       H  0.23733100  0.52720262  0.25552060     0.08700
H2155       H  0.24290695  0.55031939  0.29118887     0.11900
H2156       H  0.29158218  0.49115929  0.31711292     0.13800
C2157       C  0.31630695  0.36154577  0.19747827    -0.01700
C2158       C  0.33001241  0.33873019  0.19645028    -0.09700
C2159       C  0.33696706  0.32604945  0.21656918    -0.18600
C2160       C  0.33043121  0.33605093  0.23832687     0.03800
C2161       C  0.31428019  0.35776626  0.23904277     0.18000
C2162       C  0.30745828  0.37027972  0.21871424    -0.20000
C2163       C  0.30615047  0.36767226  0.26006656    -0.21200
C2164       C  0.31508821  0.35745699  0.28054164    -0.19800
C2165       C  0.33282460  0.33754350  0.28039686     0.19400
C2166       C  0.34040736  0.32621470  0.25930013     0.01500
C2167       C  0.35914059  0.30687352  0.25999593    -0.14500
C2168       C  0.37118269  0.30050181  0.28049374    -0.12200
C2169       C  0.36438133  0.31249468  0.30097337     0.01100
C2170       C  0.34437062  0.33009086  0.30107411    -0.24400
H2171       H  0.33660600  0.33142751  0.18013672     0.09100
H2172       H  0.34803617  0.30890318  0.21453122     0.12600
H2173       H  0.29613442  0.38754491  0.21948723     0.11400
H2174       H  0.29344356  0.38395052  0.26066959     0.12600
H2175       H  0.30909599  0.36604985  0.29654274     0.11600
H2176       H  0.36596035  0.29732821  0.24486253     0.08700
H2177       H  0.38650998  0.28666708  0.28023318     0.11900
H2178       H  0.33928308  0.33954325  0.31695752     0.13800
C2179       C  0.62894741  0.22289261  0.85614410    -0.01700
C2180       C  0.64739109  0.22280700  0.83875455    -0.09700
C2181       C  0.66403693  0.20230145  0.83599956    -0.18600
C2182       C  0.66327541  0.18102784  0.85094352     0.03800
C2183       C  0.64377553  0.18043740  0.86791120     0.18000
C2184       C  0.62666577  0.20117542  0.87023588    -0.20000
C2185       C  0.64217698  0.15960203  0.88298581    -0.21200
C2186       C  0.66019033  0.14002261  0.88230619    -0.19800
C2187       C  0.68039715  0.14073099  0.86658512     0.19400
C2188       C  0.68183635  0.16095370  0.85029281     0.01500
C2189       C  0.70252666  0.16085302  0.83474978    -0.14500
C2190       C  0.72188518  0.14271055  0.83644697    -0.12200
C2191       C  0.72126044  0.12359933  0.85329853     0.01100
C2192       C  0.69986060  0.12207985  0.86775490    -0.24400
H2193       H  0.64935939  0.23908624  0.82738351     0.09100
H2194       H  0.67774286  0.20408391  0.82234819     0.12600
H2195       H  0.61250173  0.20097826  0.88376654     0.11400
H2196       H  0.62727294  0.15877565  0.89583138     0.12600
H2197       H  0.65873977  0.12459955  0.89465809     0.11600
H2198       H  0.70485747  0.17507129  0.82155085     0.08700
H2199       H  0.73796412  0.14414583  0.82484289     0.11900
H2200       H  0.69915915  0.10741824  0.88089003     0.13800
C2201       C  0.63638285  0.32078036  0.80057921    -0.01700
C2202       C  0.65793416  0.33655570  0.80122768    -0.09700
C2203       C  0.67006801  0.34374814  0.78092434    -0.18600
C2204       C  0.66079011  0.33529239  0.75941121     0.03800
C2205       C  0.64041776  0.31731513  0.75922560     0.18000
C2206       C  0.62842374  0.31034448  0.77970265    -0.20000
C2207       C  0.63131456  0.30731355  0.73854472    -0.21200
C2208       C  0.64107270  0.31589150  0.71780258    -0.19800
C2209       C  0.65965797  0.33511930  0.71731954     0.19400
C2210       C  0.67007356  0.34487892  0.73811221     0.01500
C2211       C  0.68795966  0.36508636  0.73669031    -0.14500
C2212       C  0.69381509  0.37626505  0.71566925    -0.12200
C2213       C  0.68273570  0.36714352  0.69544748     0.01100
C2214       C  0.66663962  0.34583694  0.69619562    -0.24400
H2215       H  0.66459443  0.34443303  0.81733410     0.09100
H2216       H  0.68623274  0.35639325  0.78260130     0.12600
H2217       H  0.61218551  0.29746400  0.77932225     0.11400
H2218       H  0.61606224  0.29327127  0.73839080     0.12600
H2219       H  0.63315786  0.30831552  0.70202893     0.11600
H2220       H  0.69669401  0.37361175  0.75156905     0.08700
H2221       H  0.70649930  0.39266220  0.71527155     0.11900
H2222       H  0.65791399  0.33893799  0.68049490     0.13800
C2223       C  0.53878689  0.26992202  0.79923327    -0.01700
C2224       C  0.51678228  0.25480166  0.79776614    -0.09700
C2225       C  0.50455254  0.25105853  0.77658106    -0.18600
C2226       C  0.51411891  0.26247062  0.75624271     0.03800
C2227       C  0.53736754  0.27650959  0.75787518     0.18000
C2228       C  0.54926466  0.28014849  0.77918207    -0.20000
C2229       C  0.54802333  0.28799455  0.73843883    -0.21200
C2230       C  0.53531906  0.28726074  0.71757913    -0.19800
C2231       C  0.51163463  0.27505528  0.71565119     0.19400
C2232       C  0.50097039  0.26170706  0.73464727     0.01500
C2233       C  0.47706840  0.24940179  0.73135178    -0.14500
C2234       C  0.46353951  0.25203556  0.71066377    -0.12200
C2235       C  0.47350768  0.26686184  0.69279240     0.01100
C2236       C  0.49793380  0.27742101  0.69511629    -0.24400
H2237       H  0.50829912  0.24696834  0.81318865     0.09100
H2238       H  0.48723075  0.23989670  0.77675207     0.12600
H2239       H  0.56618966  0.29204033  0.78037077     0.11400
H2240       H  0.56589223  0.29841446  0.73955951     0.12600
H2241       H  0.54365109  0.29714371  0.70303814     0.11600
H2242       H  0.46795404  0.23847953  0.74473608     0.08700
H2243       H  0.44462909  0.24378282  0.70916233     0.11900
H2244       H  0.50574319  0.28877766  0.68118604     0.13800
C2245       C  0.37904163  0.38260029  0.87856152    -0.01700
C2246       C  0.40003884  0.39914211  0.87756596    -0.09700
C2247       C  0.42490385  0.38985807  0.88004720    -0.18600
C2248       C  0.42962232  0.36337872  0.88269166     0.03800
C2249       C  0.40814789  0.34673716  0.88400206     0.18000
C2250       C  0.38318122  0.35653252  0.88255679    -0.20000
C2251       C  0.41172941  0.32028604  0.88552673    -0.21200
C2252       C  0.43612689  0.30987112  0.88464392    -0.19800
C2253       C  0.45766688  0.32564783  0.88280019     0.19400
C2254       C  0.45477353  0.35267028  0.88272537     0.01500
C2255       C  0.47718438  0.36773217  0.88193229    -0.14500
C2256       C  0.50118063  0.35652848  0.87941251    -0.12200
C2257       C  0.50388185  0.32992077  0.87769059     0.01100
C2258       C  0.48201939  0.31456120  0.88022717    -0.24400
H2259       H  0.39719873  0.41933147  0.87436939     0.09100
H2260       H  0.44006338  0.40374079  0.87871089     0.12600
H2261       H  0.36696841  0.34359978  0.88290524     0.11400
H2262       H  0.39547677  0.30747494  0.88654803     0.12600
H2263       H  0.43812706  0.28927421  0.88500223     0.11600
H2264       H  0.47677182  0.38828853  0.88285367     0.08700
H2265       H  0.51768491  0.36895311  0.87806338     0.11900
H2266       H  0.48378262  0.29395913  0.87929332     0.13800
C2267       C  0.71950675  0.11878827  0.13618444    -0.01700
C2268       C  0.71759775  0.13497497  0.15516682    -0.09700
C2269       C  0.69699420  0.15152484  0.15767346    -0.18600
C2270       C  0.67763779  0.15304150  0.14081670     0.03800
C2271       C  0.67876158  0.13561923  0.12214126     0.18000
C2272       C  0.69949293  0.11849305  0.12008854    -0.20000
C2273       C  0.65972100  0.13617351  0.10523248    -0.21200
C2274       C  0.64030647  0.15437312  0.10591685    -0.19800
C2275       C  0.63949935  0.17270132  0.12341146     0.19400
C2276       C  0.65791012  0.17194236  0.14135506     0.01500
C2277       C  0.65660375  0.19100481  0.15846022    -0.14500
C2278       C  0.63899591  0.21085468  0.15700004    -0.12200
C2279       C  0.62158726  0.21232613  0.13882130     0.01100
C2280       C  0.62126474  0.19258094  0.12249290    -0.24400
H2281       H  0.73252710  0.13522186  0.16803578     0.09100
H2282       H  0.69720747  0.16334739  0.17275196     0.12600
H2283       H  0.70075749  0.10599840  0.10533033     0.11400
H2284       H  0.66020273  0.12284048  0.09104628     0.12600
H2285       H  0.62630091  0.15463000  0.09223652     0.11600
H2286       H  0.66956759  0.19178015  0.17276577     0.08700
H2287       H  0.63955738  0.22571514  0.16990831     0.11900
H2288       H  0.60802299  0.19362237  0.10823315     0.13800
C2289       C  0.49908913  0.32149921  0.11337631    -0.01700
C2290       C  0.49729724  0.34812152  0.11123013    -0.09700
C2291       C  0.47365426  0.36017180  0.11007437    -0.18600
C2292       C  0.45073621  0.34595310  0.11109885     0.03800
C2293       C  0.45251893  0.31884489  0.11117423     0.18000
C2294       C  0.47656386  0.30687668  0.11246482    -0.20000
C2295       C  0.43025918  0.30395251  0.11074467    -0.21200
C2296       C  0.40629334  0.31541282  0.11094445    -0.19800
C2297       C  0.40397068  0.34202772  0.11239456     0.19400
C2298       C  0.42619646  0.35768812  0.11262236     0.01500
C2299       C  0.42297234  0.38431399  0.11570555    -0.14500
C2300       C  0.39879812  0.39478076  0.11908869    -0.12200
C2301       C  0.37701857  0.37933345  0.11867381     0.01100
C2302       C  0.37962176  0.35303890  0.11474917    -0.24400
H2303       H  0.51430642  0.35994073  0.11135063     0.09100
H2304       H  0.47396395  0.38069241  0.10866292     0.12600
H2305       H  0.47763677  0.28624700  0.11378507     0.11400
H2306       H  0.43138520  0.28328380  0.11051382     0.12600
H2307       H  0.38946269  0.30332330  0.11082324     0.11600
H2308       H  0.43882343  0.39741689  0.11670141     0.08700
H2309       H  0.39711982  0.41506426  0.12242796     0.11900
H2310       H  0.36278169  0.34093894  0.11503327     0.13800
C2311       C  0.58997443  0.27872188  0.93665679    -0.01700
C2312       C  0.61314649  0.27628525  0.94844153    -0.09700
C2313       C  0.61363157  0.27351482  0.97226809    -0.18600
C2314       C  0.59078520  0.27325344  0.98517167     0.03800
C2315       C  0.56731635  0.27531244  0.97305066     0.18000
C2316       C  0.56713030  0.27802292  0.94912994    -0.20000
C2317       C  0.54410525  0.27488683  0.98485615    -0.21200
C2318       C  0.54364588  0.27289549  0.00857231    -0.19800
C2319       C  0.56639120  0.27148085  0.02107030     0.19400
C2320       C  0.59032408  0.27143928  0.00962686     0.01500
C2321       C  0.61267914  0.27016587  0.02323466    -0.14500
C2322       C  0.61125825  0.26978978  0.04716787    -0.12200
C2323       C  0.58760784  0.27039112  0.05830201     0.01100
C2324       C  0.56526594  0.27073811  0.04505642    -0.24400
H2325       H  0.63106951  0.27651625  0.93921370     0.09100
H2326       H  0.63218068  0.27172952  0.98005288     0.12600
H2327       H  0.54904745  0.27981326  0.94022679     0.11400
H2328       H  0.52616211  0.27631966  0.97569058     0.12600
H2329       H  0.52535452  0.27286828  0.01723219     0.11600
H2330       H  0.63154670  0.26991153  0.01595047     0.08700
H2331       H  0.62880858  0.26938261  0.05698371     0.11900
H2332       H  0.54680998  0.27116459  0.05343254     0.13800
C2333       C  0.62534175  0.31327593  0.19639757    -0.01700
C2334       C  0.64837200  0.32676566  0.19543024    -0.09700
C2335       C  0.66038779  0.33484317  0.21548039    -0.18600
C2336       C  0.64967700  0.32951233  0.23722819     0.03800
C2337       C  0.62728201  0.31413750  0.23810835     0.18000
C2338       C  0.61521189  0.30642037  0.21777220    -0.20000
C2339       C  0.61665824  0.30723693  0.25924607    -0.21200
C2340       C  0.62726472  0.31611899  0.27959688    -0.19800
C2341       C  0.64830485  0.33265898  0.27923732     0.19400
C2342       C  0.65990121  0.33952364  0.25803727     0.01500
C2343       C  0.68030110  0.35727838  0.25848777    -0.14500
C2344       C  0.68791312  0.36869388  0.27893938    -0.12200
C2345       C  0.67609704  0.36220381  0.29961302     0.01100
C2346       C  0.65695515  0.34351738  0.29984585    -0.24400
H2347       H  0.65661415  0.33204362  0.17905847     0.09100
H2348       H  0.67787530  0.34544938  0.21333978     0.12600
H2349       H  0.59758392  0.29552319  0.21856211     0.11400
H2350       H  0.59978518  0.29522968  0.26002900     0.12600
H2351       H  0.61835194  0.31080132  0.29568238     0.11600
H2352       H  0.68995032  0.36372878  0.24323463     0.08700
H2353       H  0.70272133  0.38319230  0.27853975     0.11900
H2354       H  0.64751263  0.33885324  0.31586806     0.13800
C2355       C  0.52277992  0.26333399  0.19009352    -0.01700
C2356       C  0.53245475  0.24724972  0.20717608    -0.09700
C2357       C  0.51979124  0.24482292  0.22829743    -0.18600
C2358       C  0.49708177  0.25858999  0.23284040     0.03800
C2359       C  0.48670485  0.27353396  0.21471658     0.18000
C2360       C  0.49945176  0.27557946  0.19371501    -0.20000
C2361       C  0.46431681  0.28750547  0.21794204    -0.21200
C2362       C  0.45262079  0.28817557  0.23922230    -0.19800
C2363       C  0.46292302  0.27473132  0.25774963     0.19400
C2364       C  0.48484605  0.25910933  0.25482853     0.01500
C2365       C  0.49397685  0.24565785  0.27430298    -0.14500
C2366       C  0.48255520  0.24873055  0.29591121    -0.12200
C2367       C  0.46186312  0.26525611  0.29862903     0.01100
C2368       C  0.45189522  0.27772253  0.27942915    -0.24400
H2369       H  0.55055498  0.23772667  0.20470499     0.09100
H2370       H  0.52868230  0.23282771  0.24102354     0.12600
H2371       H  0.49181781  0.28791379  0.18040998     0.11400
H2372       H  0.45624596  0.29870672  0.20408410     0.12600
H2373       H  0.43573904  0.29984130  0.24135332     0.11600
H2374       H  0.51028519  0.23320519  0.27345572     0.08700
H2375       H  0.49066224  0.23916854  0.31068620     0.11900
H2376       H  0.43593604  0.29063906  0.28158848     0.13800
C2377       C  0.78313717  0.61966336  0.85288992    -0.01700
C2378       C  0.80598459  0.61520528  0.86466012    -0.09700
C2379       C  0.82634784  0.63268673  0.86314036    -0.18600
C2380       C  0.82415989  0.65542577  0.85001713     0.03800
C2381       C  0.80142219  0.65879011  0.83700455     0.18000
C2382       C  0.78136520  0.64099254  0.83852162    -0.20000
C2383       C  0.79811378  0.68067653  0.82356360    -0.21200
C2384       C  0.81619596  0.70012892  0.82376975    -0.19800
C2385       C  0.83807754  0.69822441  0.83743308     0.19400
C2386       C  0.84287342  0.67558623  0.85023581     0.01500
C2387       C  0.86556339  0.67478788  0.86347002    -0.14500
C2388       C  0.88180511  0.69615081  0.86507382    -0.12200
C2389       C  0.87607476  0.71894581  0.85352153     0.01100
C2390       C  0.85457947  0.71939263  0.83910880    -0.24400
H2391       H  0.80754682  0.59897478  0.87611519     0.09100
H2392       H  0.84309398  0.62849731  0.87319125     0.12600
H2393       H  0.76355029  0.64459563  0.82959928     0.11400
H2394       H  0.78095651  0.68318696  0.81342038     0.12600
H2395       H  0.81259914  0.71719672  0.81374531     0.11600
H2396       H  0.87083725  0.65817890  0.87331492     0.08700
H2397       H  0.89833127  0.69514942  0.87619473     0.11900
H2398       H  0.85005315  0.73673456  0.82977393     0.13800
C2399       C  0.63194773  0.68185711  0.69903910    -0.01700
C2400       C  0.65683239  0.67223882  0.69908499    -0.09700
C2401       C  0.66950708  0.66744467  0.71980519    -0.18600
C2402       C  0.65743917  0.67198165  0.74114159     0.03800
C2403       C  0.63295587  0.68357422  0.74080911     0.18000
C2404       C  0.62070384  0.68860442  0.71995062    -0.20000
C2405       C  0.62018183  0.68890272  0.76128546    -0.21200
C2406       C  0.63028018  0.68113862  0.78214116    -0.19800
C2407       C  0.65352528  0.66814386  0.78300442     0.19400
C2408       C  0.66800865  0.66423551  0.76268466     0.01500
C2409       C  0.69164280  0.65136886  0.76477130    -0.14500
C2410       C  0.69943958  0.64103903  0.78579339    -0.12200
C2411       C  0.68404876  0.64342808  0.80521185     0.01100
C2412       C  0.66161191  0.65768979  0.80391463    -0.24400
H2413       H  0.66611459  0.66734997  0.68310939     0.09100
H2414       H  0.68832507  0.65934497  0.71857292     0.12600
H2415       H  0.60181201  0.69690493  0.72006915     0.11400
H2416       H  0.60175791  0.69822492  0.76111100     0.12600
H2417       H  0.61938790  0.68451654  0.79762625     0.11600
H2418       H  0.70396215  0.64804051  0.75031030     0.08700
H2419       H  0.71670357  0.62974386  0.78653959     0.11900
H2420       H  0.64963473  0.65931297  0.81900838     0.13800
C2421       C  0.72151235  0.53715072  0.79593691    -0.01700
C2422       C  0.73297667  0.51299509  0.79561414    -0.09700
C2423       C  0.73694297  0.50009725  0.77486097    -0.18600
C2424       C  0.72945848  0.51101670  0.75366569     0.03800
C2425       C  0.71858123  0.53587824  0.75414064     0.18000
C2426       C  0.71494566  0.54863878  0.77502561    -0.20000
C2427       C  0.71043694  0.54757199  0.73384290    -0.21200
C2428       C  0.71150073  0.53456678  0.71315074    -0.19800
C2429       C  0.72118770  0.50973029  0.71216218     0.19400
C2430       C  0.73124456  0.49786780  0.73216557     0.01500
C2431       C  0.74171014  0.47305658  0.72977835    -0.14500
C2432       C  0.74031328  0.45990649  0.70884709    -0.12200
C2433       C  0.72852731  0.47110646  0.68982347     0.01100
C2434       C  0.71975847  0.49626252  0.69142544    -0.24400
H2435       H  0.73813049  0.50363737  0.81152550     0.09100
H2436       H  0.74520638  0.48130980  0.77599278     0.12600
H2437       H  0.70623234  0.56740827  0.77502053     0.11400
H2438       H  0.70235117  0.56660035  0.73408697     0.12600
H2439       H  0.70414506  0.54380256  0.69787677     0.11600
H2440       H  0.75038216  0.46307107  0.74394242     0.08700
H2441       H  0.74701208  0.44038107  0.70793655     0.11900
H2442       H  0.71060520  0.50494538  0.67665555     0.13800
C2443       C  0.67160476  0.50416198  0.87957004    -0.01700
C2444       C  0.64511005  0.50159409  0.87751732    -0.09700
C2445       C  0.63324642  0.47790450  0.88011592    -0.18600
C2446       C  0.64765398  0.45561637  0.88432546     0.03800
C2447       C  0.67432413  0.45853190  0.88820084     0.18000
C2448       C  0.68604818  0.48277264  0.88598084    -0.20000
C2449       C  0.68920136  0.43704895  0.89323445    -0.21200
C2450       C  0.67835533  0.41266535  0.89363139    -0.19800
C2451       C  0.65243596  0.40903511  0.88857042     0.19400
C2452       C  0.63669230  0.43052715  0.88395950     0.01500
C2453       C  0.61095869  0.42588628  0.87786469    -0.14500
C2454       C  0.60156550  0.40105913  0.87555093    -0.12200
C2455       C  0.61711183  0.37991198  0.87980498     0.01100
C2456       C  0.64240023  0.38400647  0.88695498    -0.24400
H2457       H  0.63350556  0.51798975  0.87312929     0.09100
H2458       H  0.61281058  0.47762359  0.87815189     0.12600
H2459       H  0.70656559  0.48464926  0.88774713     0.11400
H2460       H  0.70948372  0.43905278  0.89642832     0.12600
H2461       H  0.69053017  0.39643571  0.89716485     0.11600
H2462       H  0.59781926  0.44099049  0.87375852     0.08700
H2463       H  0.58207633  0.39834132  0.86979862     0.11900
H2464       H  0.65473165  0.36770388  0.88974864     0.13800
C2465       C  0.77890350  0.61825481  0.14164140    -0.01700
C2466       C  0.77921378  0.63637481  0.15930389    -0.09700
C2467       C  0.79921547  0.65386992  0.16147395    -0.18600
C2468       C  0.81963913  0.65427764  0.14565669     0.03800
C2469       C  0.82009757  0.63498383  0.12850102     0.18000
C2470       C  0.79995465  0.61701808  0.12679152    -0.20000
C2471       C  0.84007500  0.63450174  0.11255267    -0.21200
C2472       C  0.85891790  0.65340866  0.11259198    -0.19800
C2473       C  0.85828126  0.67340758  0.12852527     0.19400
C2474       C  0.83892645  0.67377830  0.14562503     0.01500
C2475       C  0.83901353  0.69435489  0.16128968    -0.14500
C2476       C  0.85631771  0.71450807  0.15908363    -0.12200
C2477       C  0.87453311  0.71486264  0.14151367     0.01100
C2478       C  0.87609493  0.69369588  0.12680972    -0.24400
H2479       H  0.76339638  0.63755299  0.17120133     0.09100
H2480       H  0.79765032  0.66733478  0.17533879     0.12600
H2481       H  0.79990842  0.60313058  0.11302019     0.11400
H2482       H  0.84075548  0.61977429  0.09953303     0.12600
H2483       H  0.87367142  0.65280184  0.09960201     0.11600
H2484       H  0.82538566  0.69596423  0.17501238     0.08700
H2485       H  0.85489384  0.73042058  0.17087038     0.11900
H2486       H  0.89006820  0.69377903  0.11311538     0.13800
C2487       C  0.67143025  0.49345535  0.11445261    -0.01700
C2488       C  0.68704666  0.47234233  0.10976421    -0.09700
C2489       C  0.67667067  0.44761013  0.10785598    -0.18600
C2490       C  0.65023332  0.44306197  0.11107068     0.03800
C2491       C  0.63454968  0.46458942  0.11559503     0.18000
C2492       C  0.64508678  0.48929331  0.11679252    -0.20000
C2493       C  0.60846079  0.46134593  0.11979008    -0.21200
C2494       C  0.59764620  0.43710791  0.12044172    -0.19800
C2495       C  0.61249322  0.41544157  0.11641074     0.19400
C2496       C  0.63883057  0.41801692  0.11091031     0.01500
C2497       C  0.65249060  0.39534935  0.10601120    -0.14500
C2498       C  0.64080266  0.37120879  0.10786361    -0.12200
C2499       C  0.61530165  0.36887508  0.11488597     0.01100
C2500       C  0.60118564  0.39115524  0.11856859    -0.24400
H2501       H  0.70748220  0.47483789  0.10809057     0.09100
H2502       H  0.68988726  0.43229208  0.10463210     0.12600
H2503       H  0.63272058  0.50526032  0.12071629     0.11400
H2504       H  0.59641180  0.47767606  0.12325135     0.12600
H2505       H  0.57752242  0.43528367  0.12441106     0.11600
H2506       H  0.67230645  0.39571424  0.10105624     0.08700
H2507       H  0.65212652  0.35426287  0.10491172     0.11900
H2508       H  0.58137379  0.38954063  0.12375829     0.13800
C2509       C  0.72546929  0.58442048  0.05874100    -0.01700
C2510       C  0.73530247  0.56375830  0.04632333    -0.09700
C2511       C  0.73668470  0.56447375  0.02240339    -0.18600
C2512       C  0.72777767  0.58586377  0.00994454     0.03800
C2513       C  0.71819942  0.60695301  0.02263840     0.18000
C2514       C  0.71758192  0.60624185  0.04675535    -0.20000
C2515       C  0.70846413  0.62830760  0.01117948    -0.21200
C2516       C  0.70721585  0.62886814  0.98737411    -0.19800
C2517       C  0.71622890  0.60834425  0.97437256     0.19400
C2518       C  0.72726590  0.58680463  0.98540026     0.01500
C2519       C  0.73699919  0.56708492  0.97133820    -0.14500
C2520       C  0.73512814  0.56841481  0.94742893    -0.12200
C2521       C  0.72333697  0.58923488  0.93669940     0.01100
C2522       C  0.71409258  0.60921409  0.95035251    -0.24400
H2523       H  0.74170893  0.54671421  0.05514124     0.09100
H2524       H  0.74412887  0.54768356  0.01415858     0.12600
H2525       H  0.70984756  0.62229757  0.05615710     0.11400
H2526       H  0.70116741  0.64445916  0.02071627     0.12600
H2527       H  0.69901614  0.64545870  0.97906544     0.11600
H2528       H  0.74619879  0.55040437  0.97827697     0.08700
H2529       H  0.74256463  0.55279459  0.93730665     0.11900
H2530       H  0.70524419  0.62560907  0.94225491     0.13800
C2531       C  0.67811378  0.62167000  0.19642107    -0.01700
C2532       C  0.66762247  0.64623533  0.19588999    -0.09700
C2533       C  0.66045265  0.65848362  0.21619330    -0.18600
C2534       C  0.66360824  0.64643159  0.23777183     0.03800
C2535       C  0.67586802  0.62224777  0.23822059     0.18000
C2536       C  0.68290834  0.61018027  0.21771376    -0.20000
C2537       C  0.68018256  0.60974315  0.25907997    -0.21200
C2538       C  0.67152050  0.62015012  0.27952390    -0.19800
C2539       C  0.65806856  0.64318396  0.27959818     0.19400
C2540       C  0.65420455  0.65691006  0.25878552     0.01500
C2541       C  0.63986512  0.67974718  0.25980951    -0.14500
C2542       C  0.62842268  0.68754663  0.28027370    -0.12200
C2543       C  0.63168381  0.67346870  0.30047775     0.01100
C2544       C  0.64730035  0.65186137  0.30022635    -0.24400
H2545       H  0.66402241  0.65564987  0.17965841     0.09100
H2546       H  0.65204277  0.67713212  0.21440260     0.12600
H2547       H  0.69153913  0.59138619  0.21831894     0.11400
H2548       H  0.68978605  0.59144268  0.25953541     0.12600
H2549       H  0.67460195  0.60964822  0.29531128     0.11600
H2550       H  0.63617671  0.69136209  0.24491358     0.08700
H2551       H  0.61640759  0.70434897  0.28020756     0.11900
H2552       H  0.64954028  0.64074029  0.31580759     0.13800
C2553       C  0.72664723  0.51819954  0.19023027    -0.01700
C2554       C  0.74453894  0.52630310  0.20647413    -0.09700
C2555       C  0.74711348  0.51314939  0.22731147    -0.18600
C2556       C  0.73164304  0.49157744  0.23238685     0.03800
C2557       C  0.71449115  0.48289203  0.21515243     0.18000
C2558       C  0.71245353  0.49597648  0.19436222    -0.20000
C2559       C  0.69846174  0.46193522  0.21909043    -0.21200
C2560       C  0.69809818  0.45005917  0.24031217    -0.19800
C2561       C  0.71396856  0.45870321  0.25795903     0.19400
C2562       C  0.73159663  0.47900603  0.25417308     0.01500
C2563       C  0.74758808  0.48634631  0.27267242    -0.14500
C2564       C  0.74487689  0.47513821  0.29438005    -0.12200
C2565       C  0.72618968  0.45651274  0.29810057     0.01100
C2566       C  0.71143297  0.44783599  0.27972183    -0.24400
H2567       H  0.75555283  0.54355649  0.20358391     0.09100
H2568       H  0.76062681  0.52085943  0.23942285     0.12600
H2569       H  0.69871536  0.48952368  0.18166657     0.11400
H2570       H  0.68548228  0.45522374  0.20590517     0.12600
H2571       H  0.68485689  0.43439779  0.24311791     0.11600
H2572       H  0.76183536  0.50113210  0.27104139     0.08700
H2573       H  0.75640313  0.48200670  0.30852451     0.11900
H2574       H  0.69704190  0.43324174  0.28266355     0.13800
C2575       C  0.37473743  0.77417788  0.85713921    -0.01700
C2576       C  0.37882906  0.79614414  0.87037572    -0.09700
C2577       C  0.36193502  0.81685514  0.86913012    -0.18600
C2578       C  0.34033744  0.81618418  0.85449152     0.03800
C2579       C  0.33722720  0.79438598  0.84020623     0.18000
C2580       C  0.35427678  0.77384492  0.84164269    -0.20000
C2581       C  0.31656769  0.79269980  0.82508734    -0.21200
C2582       C  0.29818530  0.81168249  0.82450524    -0.19800
C2583       C  0.29989785  0.83276822  0.83912877     0.19400
C2584       C  0.32121427  0.83574202  0.85401087     0.01500
C2585       C  0.32178001  0.85761916  0.86831035    -0.14500
C2586       C  0.30128432  0.87482876  0.86877823    -0.12200
C2587       C  0.27971952  0.87085740  0.85497429     0.01100
C2588       C  0.27971500  0.85028134  0.83960721    -0.24400
H2589       H  0.39451353  0.79689679  0.88246568     0.09100
H2590       H  0.36589763  0.83284101  0.88021526     0.12600
H2591       H  0.35108602  0.75707400  0.83110290     0.11400
H2592       H  0.31425981  0.77624376  0.81400636     0.12600
H2593       H  0.28207685  0.80945609  0.81299673     0.11600
H2594       H  0.33740248  0.86146422  0.87984481     0.08700
H2595       H  0.30182855  0.89061824  0.88074788     0.11900
H2596       H  0.26330658  0.84718890  0.82858838     0.13800
C2597       C  0.47670346  0.72552925  0.80716037    -0.01700
C2598       C  0.46989356  0.74483014  0.79165781    -0.09700
C2599       C  0.48381268  0.74834725  0.77124448    -0.18600
C2600       C  0.50465200  0.73224617  0.76573739     0.03800
C2601       C  0.51215858  0.71385000  0.78238261     0.18000
C2602       C  0.49862285  0.71114799  0.80286221    -0.20000
C2603       C  0.53202118  0.69683632  0.77792954    -0.21200
C2604       C  0.54315491  0.69602208  0.75645616    -0.19800
C2605       C  0.53536818  0.71287050  0.73924810     0.19400
C2606       C  0.51716308  0.73226239  0.74386377     0.01500
C2607       C  0.51154282  0.74974720  0.72594549    -0.14500
C2608       C  0.52189102  0.74651866  0.70386063    -0.12200
C2609       C  0.53766160  0.72562353  0.69914689     0.01100
C2610       C  0.54487256  0.70949401  0.71710201    -0.24400
H2611       H  0.45305678  0.75625918  0.79471128     0.09100
H2612       H  0.47705365  0.76278688  0.75952877     0.12600
H2613       H  0.50430139  0.69648702  0.81500203     0.11400
H2614       H  0.53794818  0.68299958  0.79070260     0.12600
H2615       H  0.55738937  0.68154391  0.75305971     0.11600
H2616       H  0.49881703  0.76564974  0.72844963     0.08700
H2617       H  0.51647097  0.75949325  0.69023602     0.11900
H2618       H  0.55732348  0.69348710  0.71357922     0.13800
C2619       C  0.37312605  0.67640645  0.80063506    -0.01700
C2620       C  0.38350537  0.68515288  0.77995357    -0.09700
C2621       C  0.37229350  0.67870136  0.75909926    -0.18600
C2622       C  0.35060455  0.66260923  0.75831787     0.03800
C2623       C  0.33968405  0.65452005  0.77947320     0.18000
C2624       C  0.35063205  0.66200069  0.80036720    -0.20000
C2625       C  0.31881446  0.63780180  0.77967095    -0.21200
C2626       C  0.30949153  0.62765243  0.75933882    -0.19800
C2627       C  0.32038070  0.63456582  0.73833568     0.19400
C2628       C  0.34032905  0.65300658  0.73738785     0.01500
C2629       C  0.34973437  0.66022047  0.71555980    -0.14500
C2630       C  0.34100706  0.64815877  0.69571952    -0.12200
C2631       C  0.32283984  0.62860514  0.69709630     0.01100
C2632       C  0.31206094  0.62240469  0.71830957    -0.24400
H2633       H  0.40082547  0.69653137  0.77988063     0.09100
H2634       H  0.38177619  0.68562673  0.74392701     0.12600
H2635       H  0.34268553  0.65506320  0.81638329     0.11400
H2636       H  0.31035087  0.63166792  0.79571870     0.12600
H2637       H  0.29401686  0.61388142  0.76008309     0.11600
H2638       H  0.36411105  0.67475914  0.71326561     0.08700
H2639       H  0.34940940  0.65327421  0.67936808     0.11900
H2640       H  0.29762158  0.60755252  0.71928078     0.13800
C2641       C  0.49938070  0.66906008  0.88436682    -0.01700
C2642       C  0.52010124  0.68553773  0.88799166    -0.09700
C2643       C  0.54482640  0.67598588  0.89018526    -0.18600
C2644       C  0.54970337  0.64948111  0.88847856     0.03800
C2645       C  0.52843844  0.63276119  0.88608813     0.18000
C2646       C  0.50361821  0.64260259  0.88442633    -0.20000
C2647       C  0.53213969  0.60638549  0.88415176    -0.21200
C2648       C  0.55661445  0.59630879  0.88330369    -0.19800
C2649       C  0.57798970  0.61233070  0.88460244     0.19400
C2650       C  0.57487716  0.63906438  0.88791529     0.01500
C2651       C  0.59712675  0.65428210  0.88956765    -0.14500
C2652       C  0.62126208  0.64369252  0.88648414    -0.12200
C2653       C  0.62416776  0.61758724  0.88182695     0.01100
C2654       C  0.60244885  0.60187748  0.88168778    -0.24400
H2655       H  0.51737792  0.70603871  0.88819263     0.09100
H2656       H  0.55978386  0.68995364  0.89231155     0.12600
H2657       H  0.48773436  0.62960610  0.88175093     0.11400
H2658       H  0.51599137  0.59352213  0.88249004     0.12600
H2659       H  0.55883241  0.57589120  0.88102593     0.11600
H2660       H  0.59653905  0.67455677  0.89265678     0.08700
H2661       H  0.63770332  0.65628015  0.88697404     0.11900
H2662       H  0.60444180  0.58162557  0.87827253     0.13800
C2663       C  0.32865184  0.49459935  0.87890747    -0.01700
C2664       C  0.31351625  0.51528622  0.88570915    -0.09700
C2665       C  0.32425227  0.53968254  0.88858455    -0.18600
C2666       C  0.35047950  0.54421680  0.88418759     0.03800
C2667       C  0.36569689  0.52295897  0.87781119     0.18000
C2668       C  0.35488432  0.49856059  0.87580754    -0.20000
C2669       C  0.39148308  0.52624150  0.87239038    -0.21200
C2670       C  0.40236787  0.55041442  0.87215213    -0.19800
C2671       C  0.38792406  0.57184398  0.87793892     0.19400
C2672       C  0.36201716  0.56908561  0.88483190     0.01500
C2673       C  0.34879833  0.59144725  0.89143806    -0.14500
C2674       C  0.36041090  0.61557956  0.88989657    -0.12200
C2675       C  0.38535457  0.61815627  0.88154256     0.01100
C2676       C  0.39913611  0.59613587  0.87614421    -0.24400
H2677       H  0.29319540  0.51276410  0.88826065     0.09100
H2678       H  0.31140778  0.55479266  0.89338310     0.12600
H2679       H  0.36686708  0.48279804  0.87049632     0.11400
H2680       H  0.40313898  0.51006824  0.86752855     0.12600
H2681       H  0.42217680  0.55239611  0.86710886     0.11600
H2682       H  0.32937641  0.59089685  0.89749336     0.08700
H2683       H  0.34938643  0.63238106  0.89413910     0.11900
H2684       H  0.41853670  0.59799775  0.86987217     0.13800
C2685       C  0.37494216  0.77468398  0.13922395    -0.01700
C2686       C  0.37912017  0.79673693  0.12598787    -0.09700
C2687       C  0.36152631  0.81703658  0.12622802    -0.18600
C2688       C  0.33902869  0.81581909  0.13971372     0.03800
C2689       C  0.33564759  0.79386279  0.15381047     0.18000
C2690       C  0.35349802  0.77392802  0.15358271    -0.20000
C2691       C  0.31392173  0.79131985  0.16752608    -0.21200
C2692       C  0.29485592  0.80960928  0.16696177    -0.19800
C2693       C  0.29703886  0.83108066  0.15279413     0.19400
C2694       C  0.31932660  0.83494431  0.13929939     0.01500
C2695       C  0.32037081  0.85737321  0.12563949    -0.14500
C2696       C  0.29964716  0.87443121  0.12464642    -0.12200
C2697       C  0.27724589  0.86973914  0.13719761     0.01100
C2698       C  0.27654698  0.84827930  0.15164689    -0.24400
H2699       H  0.39549456  0.79789347  0.11471837     0.09100
H2700       H  0.36560409  0.83311178  0.11522600     0.12600
H2701       H  0.35009380  0.75716578  0.16411890     0.11400
H2702       H  0.31133019  0.77468694  0.17838583     0.12600
H2703       H  0.27799999  0.80667105  0.17740621     0.11600
H2704       H  0.33675066  0.86190237  0.11520400     0.08700
H2705       H  0.30083019  0.89085015  0.11337357     0.11900
H2706       H  0.25953965  0.84445900  0.16167944     0.13800
C2707       C  0.50176321  0.66976406  0.11636279    -0.01700
C2708       C  0.50344687  0.64388045  0.11033923    -0.09700
C2709       C  0.52710226  0.63210462  0.10741239    -0.18600
C2710       C  0.55009627  0.64580506  0.11070510     0.03800
C2711       C  0.54835721  0.67251133  0.11488641     0.18000
C2712       C  0.52434940  0.68420710  0.11766107    -0.20000
C2713       C  0.57061899  0.68717641  0.11712566    -0.21200
C2714       C  0.59455970  0.67579329  0.11596294    -0.19800
C2715       C  0.59687611  0.64932556  0.11321178     0.19400
C2716       C  0.57466033  0.63388931  0.11065777     0.01500
C2717       C  0.57794228  0.60707246  0.10957225    -0.14500
C2718       C  0.60212147  0.59610357  0.11168977    -0.12200
C2719       C  0.62387674  0.61141519  0.11403153     0.01100
C2720       C  0.62121477  0.63804390  0.11421469    -0.24400
H2721       H  0.48633402  0.63237511  0.10859269     0.09100
H2722       H  0.52677729  0.61213292  0.10293626     0.12600
H2723       H  0.52334889  0.70430779  0.12201599     0.11400
H2724       H  0.56950826  0.70757280  0.12011294     0.12600
H2725       H  0.61137729  0.68767784  0.11804969     0.11600
H2726       H  0.56207644  0.59399875  0.10826935     0.08700
H2727       H  0.60380141  0.57548052  0.11204807     0.11900
H2728       H  0.63797868  0.64990919  0.11682561     0.13800
C2729       C  0.38925362  0.61849013  0.11954118    -0.01700
C2730       C  0.36532221  0.61535857  0.10919630    -0.09700
C2731       C  0.35376142  0.59121153  0.10818904    -0.18600
C2732       C  0.36597742  0.56943649  0.11750856     0.03800
C2733       C  0.39097107  0.57266982  0.12661138     0.18000
C2734       C  0.40223246  0.59694098  0.12755733    -0.20000
C2735       C  0.40434559  0.55182356  0.13549007    -0.21200
C2736       C  0.39325349  0.52775739  0.13600880    -0.19800
C2737       C  0.36836126  0.52402973  0.12801195     0.19400
C2738       C  0.35424702  0.54472805  0.11864713     0.01500
C2739       C  0.32880045  0.53986801  0.11163706    -0.14500
C2740       C  0.31778122  0.51562091  0.11434576    -0.12200
C2741       C  0.33188972  0.49539934  0.12363038     0.01100
C2742       C  0.35730374  0.49973903  0.13002121    -0.24400
H2743       H  0.35492628  0.63180541  0.10293370     0.09100
H2744       H  0.33510208  0.59026336  0.10045079     0.12600
H2745       H  0.42088528  0.59922925  0.13539179     0.11400
H2746       H  0.42343812  0.55420412  0.14234521     0.12600
H2747       H  0.40404089  0.51203403  0.14320886     0.11600
H2748       H  0.31674537  0.55455667  0.10459010     0.08700
H2749       H  0.29806096  0.51275617  0.10937022     0.11900
H2750       H  0.36831334  0.48434497  0.13754355     0.13800
C2751       C  0.41420961  0.71913187  0.06041703    -0.01700
C2752       C  0.43660966  0.72509271  0.04840195    -0.09700
C2753       C  0.43662628  0.72708960  0.02459567    -0.18600
C2754       C  0.41411481  0.72296489  0.01174662     0.03800
C2755       C  0.39130111  0.71726531  0.02392955     0.18000
C2756       C  0.39149215  0.71558209  0.04803879    -0.20000
C2757       C  0.36857421  0.71273220  0.01193151    -0.21200
C2758       C  0.36819441  0.71283733  0.98805701    -0.19800
C2759       C  0.39047997  0.71772741  0.97555925     0.19400
C2760       C  0.41362079  0.72350474  0.98725720     0.01500
C2761       C  0.43542136  0.72903226  0.97391492    -0.14500
C2762       C  0.43466105  0.72744090  0.95011830    -0.12200
C2763       C  0.41217425  0.72053561  0.93859422     0.01100
C2764       C  0.38993106  0.71631383  0.95143352    -0.24400
H2765       H  0.45444292  0.72808025  0.05743124     0.09100
H2766       H  0.45475229  0.73143006  0.01680608     0.12600
H2767       H  0.37402837  0.71096750  0.05711517     0.11400
H2768       H  0.35105864  0.70853745  0.02107415     0.12600
H2769       H  0.35040815  0.70869134  0.97930567     0.11600
H2770       H  0.45350885  0.73437846  0.98129090     0.08700
H2771       H  0.45205994  0.73134249  0.94071092     0.11900
H2772       H  0.37234463  0.71126207  0.94272186     0.13800
C2773       C  0.47367405  0.72984114  0.19379728    -0.01700
C2774       C  0.46107997  0.74193096  0.21187548    -0.09700
C2775       C  0.47348582  0.74564144  0.23293120    -0.18600
C2776       C  0.49888907  0.73719093  0.23634578     0.03800
C2777       C  0.51186543  0.72644611  0.21725007     0.18000
C2778       C  0.49919821  0.72287058  0.19637303    -0.20000
C2779       C  0.53701108  0.71796435  0.21935876    -0.21200
C2780       C  0.54914773  0.71826925  0.24046036    -0.19800
C2781       C  0.53637194  0.72698130  0.25993265     0.19400
C2782       C  0.51142612  0.73747814  0.25816979     0.01500
C2783       C  0.49970941  0.74621830  0.27859704    -0.14500
C2784       C  0.51134475  0.74236655  0.29999017    -0.12200
C2785       C  0.53500019  0.73019344  0.30142193     0.01100
C2786       C  0.54784378  0.72360473  0.28138245    -0.24400
H2787       H  0.44119172  0.74717727  0.21014252     0.09100
H2788       H  0.46245898  0.75426409  0.24643297     0.12600
H2789       H  0.50887201  0.71344694  0.18229567     0.11400
H2790       H  0.54703590  0.71009723  0.20475106     0.12600
H2791       H  0.56828590  0.71059741  0.24173572     0.11600
H2792       H  0.48112397  0.75497330  0.27865916     0.08700
H2793       H  0.50122334  0.74756056  0.31547142     0.11900
H2794       H  0.56621365  0.71419718  0.28263626     0.13800
C2795       C  0.37301496  0.67543089  0.19855332    -0.01700
C2796       C  0.35032364  0.66131896  0.19717149    -0.09700
C2797       C  0.33770260  0.65334283  0.21703900    -0.18600
C2798       C  0.34741279  0.65939910  0.23902750     0.03800
C2799       C  0.36925327  0.67553236  0.24024970     0.18000
C2800       C  0.38196291  0.68309658  0.22014204    -0.20000
C2801       C  0.37877963  0.68333003  0.26155519    -0.21200
C2802       C  0.36781158  0.67446777  0.28176483    -0.19800
C2803       C  0.34754663  0.65700050  0.28116206     0.19400
C2804       C  0.33687458  0.64934454  0.25978452     0.01500
C2805       C  0.31722639  0.63074193  0.26009177    -0.14500
C2806       C  0.30966721  0.61916903  0.28058353    -0.12200
C2807       C  0.32069676  0.62637887  0.30146140     0.01100
C2808       C  0.33888667  0.64601289  0.30175700    -0.24400
H2809       H  0.34284491  0.65548290  0.18066055     0.09100
H2810       H  0.32058763  0.64218790  0.21462915     0.12600
H2811       H  0.39921672  0.69453439  0.22131684     0.11400
H2812       H  0.39515496  0.69598318  0.26259978     0.12600
H2813       H  0.37596987  0.68046417  0.29798256     0.11600
H2814       H  0.30823849  0.62377489  0.24468530     0.08700
H2815       H  0.29550242  0.60404593  0.28006693     0.11900
H2816       H  0.34768214  0.65140216  0.31789730     0.13800
loop_ 
_geom_bond_atom_site_label_1 
_geom_bond_atom_site_label_2 
_geom_bond_distance 
_geom_bond_site_symmetry_2 
_ccdc_geom_bond_type 
O1          Cr19   2.021       .  S
O1            C9   1.271       .  A
O2          Cr19   1.969       .  S
O2            C3   1.257       .  A
C3            O4   1.269       .  A
C3         C2685   1.494       .  S
O4          Cr20   2.036       .  S
O5          Cr20   1.994       .  S
O5            C6   1.260       .  A
C6            O7   1.261       .  A
C6         C2773   1.468       .  S
O7          Cr21   1.996       .  S
O8          Cr21   1.973       .  S
O8            C9   1.262       .  A
C9         C2795   1.479       .  S
O10         Cr19   1.982       .  S
O10          C18   1.259       .  A
O11         Cr19   2.022       .  S
O11          C12   1.271       .  A
C12          O13   1.261       .  A
C12        C2751   1.484       .  S
O13         Cr20   1.963       .  S
O14         Cr20   2.043       .  S
O14          C15   1.275       .  A
C15          O16   1.262       .  A
C15        C2707   1.489       .  S
O16         Cr21   1.972       .  S
O17         Cr21   1.994       .  S
O17          C18   1.262       .  A
C18        C2729   1.476       .  S
Cr19         O22   1.770       .  S
Cr20         O22   1.773       .  S
Cr21         O22   1.764       .  S
O23         Cr41   1.957       .  S
O23          C31   1.259       .  A
O24         Cr41   1.996       .  S
O24          C25   1.263       .  A
C25          O26   1.262       .  A
C25        C2597   1.481       .  S
O26         Cr42   2.003       .  S
O27         Cr42   2.022       .  S
O27          C28   1.266       .  A
C28          O29   1.256       .  A
C28        C2575   1.485       .  S
O29         Cr43   1.967       .  S
O30         Cr43   2.018       .  S
O30          C31   1.271       .  A
C31        C2619   1.468       .  S
O32         Cr41   2.000       .  S
O32          C40   1.262       .  A
O33         Cr41   1.967       .  S
O33          C34   1.262       .  A
C34          O35   1.274       .  A
C34        C2641   1.482       .  S
O35         Cr42   2.028       .  S
O36         Cr42   1.957       .  S
O36          C37   1.260       .  A
C37          O38   1.272       .  A
C37        C2763   1.483       .  S
O38         Cr43   2.024       .  S
O39         Cr43   1.985       .  S
O39          C40   1.259       .  A
C40        C2675   1.480       .  S
Cr41         O44   1.762       .  S
Cr42         O44   1.774       .  S
Cr43         O44   1.773       .  S
O45         Cr63   2.019       .  S
O45          C53   1.269       .  A
O46         Cr63   1.969       .  S
O46          C47   1.256       .  A
C47          O48   1.267       .  A
C47        C2465   1.488       .  S
O48         Cr64   2.033       .  S
O49         Cr64   1.998       .  S
O49          C50   1.263       .  A
C50          O51   1.261       .  A
C50        C2553   1.472       .  S
O51         Cr65   1.986       .  S
O52         Cr65   1.973       .  S
O52          C53   1.261       .  A
C53        C2531   1.481       .  S
O54         Cr63   1.982       .  S
O54          C62   1.259       .  A
O55         Cr63   2.023       .  S
O55          C56   1.272       .  A
C56          O57   1.262       .  A
C56        C2509   1.485       .  S
O57         Cr64   1.968       .  S
O58         Cr64   2.042       .  S
O58          C59   1.274       .  A
C59          O60   1.264       .  A
C59        C2487   1.495       .  S
O60         Cr65   1.975       .  S
O61         Cr65   2.001       .  S
O61          C62   1.262       .  A
C62        C2719   1.475       .  S
Cr63         O66   1.775       .  S
Cr64         O66   1.781       .  S
Cr65         O66   1.766       .  S
O67         Cr85   2.000       .  S
O67          C75   1.263       .  A
O68         Cr85   1.971       .  S
O68          C69   1.261       .  A
C69          O70   1.270       .  A
C69        C2421   1.486       .  S
O70         Cr86   2.023       .  S
O71         Cr86   2.004       .  S
O71          C72   1.262       .  A
C72          O73   1.258       .  A
C72        C2377   1.476       .  S
O73         Cr87   1.989       .  S
O74         Cr87   1.994       .  S
O74          C75   1.262       .  A
C75        C2411   1.467       .  S
O76         Cr85   1.982       .  S
O76          C84   1.261       .  A
O77         Cr85   1.990       .  S
O77          C78   1.262       .  A
C78          O79   1.262       .  A
C78        C2443   1.481       .  S
O79         Cr86   1.996       .  S
O80         Cr86   2.022       .  S
O80          C81   1.273       .  A
C81          O82   1.264       .  A
C81        C2521   1.485       .  S
O82         Cr87   1.972       .  S
O83         Cr87   2.006       .  S
O83          C84   1.265       .  A
C84        C2653   1.483       .  S
Cr85         O88   1.770       .  S
Cr86         O88   1.783       .  S
Cr87         O88   1.775       .  S
O89        Cr107   2.012       .  S
O89          C97   1.269       .  A
O90        Cr107   1.971       .  S
O90          C91   1.257       .  A
C91          O92   1.267       .  A
C91        C2279   1.488       .  S
O92        Cr108   2.034       .  S
O93        Cr108   2.002       .  S
O93          C94   1.264       .  A
C94          O95   1.264       .  A
C94        C2355   1.476       .  S
O95        Cr109   1.999       .  S
O96        Cr109   1.966       .  S
O96          C97   1.259       .  A
C97        C2333   1.471       .  S
O98        Cr107   1.990       .  S
O98         C106   1.261       .  A
O99        Cr107   2.018       .  S
O99         C100   1.271       .  A
C100        O101   1.262       .  A
C100       C2323   1.480       .  S
O101       Cr108   1.962       .  S
O102       Cr108   2.038       .  S
O102        C103   1.273       .  A
C103        O104   1.261       .  A
C103       C2289   1.487       .  S
O104       Cr109   1.967       .  S
O105       Cr109   2.007       .  S
O105        C106   1.264       .  A
C106       C2499   1.487       .  S
Cr107       O110   1.771       .  S
Cr108       O110   1.777       .  S
Cr109       O110   1.761       .  S
O111       Cr129   1.962       .  S
O111        C119   1.258       .  A
O112       Cr129   1.999       .  S
O112        C113   1.263       .  A
C113        O114   1.262       .  A
C113       C2223   1.475       .  S
O114       Cr130   1.997       .  S
O115       Cr130   2.039       .  S
O115        C116   1.270       .  A
C116        O117   1.258       .  A
C116       C2179   1.492       .  S
O117       Cr131   1.970       .  S
O118       Cr131   2.011       .  S
O118        C119   1.266       .  A
C119       C2201   1.466       .  S
O120       Cr129   2.003       .  S
O120        C128   1.264       .  A
O121       Cr129   1.971       .  S
O121        C122   1.261       .  A
C122        O123   1.274       .  A
C122       C2257   1.493       .  S
O123       Cr130   2.040       .  S
O124       Cr130   1.968       .  S
O124        C125   1.261       .  A
C125        O126   1.269       .  A
C125       C2311   1.481       .  S
O126       Cr131   2.013       .  S
O127       Cr131   1.989       .  S
O127        C128   1.261       .  A
C128       C2455   1.482       .  S
Cr129       O132   1.763       .  S
Cr130       O132   1.779       .  S
Cr131       O132   1.777       .  S
O133       Cr151   2.016       .  S
O133        C141   1.267       .  A
O134       Cr151   1.962       .  S
O134        C135   1.255       .  A
C135        O136   1.268       .  A
C135       C2091   1.486       .  S
O136       Cr152   2.036       .  S
O137       Cr152   2.001       .  S
O137        C138   1.265       .  A
C138        O139   1.263       .  A
C138       C2135   1.475       .  S
O139       Cr153   1.994       .  S
O140       Cr153   1.961       .  S
O140        C141   1.257       .  A
C141       C2157   1.471       .  S
O142       Cr151   1.977       .  S
O142        C150   1.258       .  A
O143       Cr151   2.016       .  S
O143        C144   1.271       .  A
C144        O145   1.262       .  A
C144       C2113   1.485       .  S
O145       Cr152   1.973       .  S
O146       Cr152   2.026       .  S
O146        C147   1.271       .  A
C147        O148   1.261       .  A
C147       C2741   1.481       .  S
O148       Cr153   1.965       .  S
O149       Cr153   2.008       .  S
O149        C150   1.265       .  A
C150       C2301   1.475       .  S
Cr151       O154   1.772       .  S
Cr152       O154   1.780       .  S
Cr153       O154   1.762       .  S
O155       Cr173   1.971       .  S
O155        C163   1.261       .  A
O156       Cr173   1.998       .  S
O156        C157   1.263       .  A
C157        O158   1.263       .  A
C157       C2047   1.478       .  S
O158       Cr174   2.004       .  S
O159       Cr174   2.028       .  S
O159        C160   1.267       .  A
C160        O161   1.256       .  A
C160       C2025   1.482       .  S
O161       Cr175   1.968       .  S
O162       Cr175   2.023       .  S
O162        C163   1.271       .  A
C163       C2069   1.479       .  S
O164       Cr173   2.007       .  S
O164        C172   1.263       .  A
O165       Cr173   1.966       .  S
O165        C166   1.261       .  A
C166        O167   1.273       .  A
C166       C2663   1.485       .  S
O167       Cr174   2.033       .  S
O168       Cr174   1.962       .  S
O168        C169   1.260       .  A
C169        O170   1.272       .  A
C169       C2125   1.487       .  S
O170       Cr175   2.027       .  S
O171       Cr175   1.984       .  S
O171        C172   1.259       .  A
C172       C2245   1.479       .  S
Cr173       O176   1.763       .  S
Cr174       O176   1.778       .  S
Cr175       O176   1.773       .  S
O177       Cr195   2.015       .  S
O177        C185   1.266       .  A
O178       Cr195   1.976       .  S
O178        C179   1.259       .  A
C179        O180   1.266       .  A
C179       C1949   1.485       .  S
O180       Cr196   2.027       .  S
O181       Cr196   1.992       .  S
O181        C182   1.261       .  A
C182        O183   1.261       .  A
C182       C2565   1.466       .  S
O183       Cr197   1.986       .  S
O184       Cr197   1.966       .  S
O184        C185   1.257       .  A
C185       C2345   1.467       .  S
O186       Cr195   1.989       .  S
O186        C194   1.262       .  A
O187       Cr195   2.013       .  S
O187        C188   1.271       .  A
C188        O189   1.262       .  A
C188       C2003   1.478       .  S
O189       Cr196   1.965       .  S
O190       Cr196   2.033       .  S
O190        C191   1.272       .  A
C191        O192   1.261       .  A
C191       C1959   1.490       .  S
O192       Cr197   1.971       .  S
O193       Cr197   1.994       .  S
O193        C194   1.263       .  A
C194       C1981   1.477       .  S
Cr195       O198   1.773       .  S
Cr196       O198   1.780       .  S
Cr197       O198   1.762       .  S
O199       Cr217   1.962       .  S
O199        C207   1.258       .  A
O200       Cr217   1.996       .  S
O200        C201   1.261       .  A
C201        O202   1.264       .  A
C201       C2433   1.475       .  S
O202       Cr218   2.005       .  S
O203       Cr218   2.036       .  S
O203        C204   1.269       .  A
C204        O205   1.257       .  A
C204       C1871   1.492       .  S
O205       Cr219   1.973       .  S
O206       Cr219   2.010       .  S
O206        C207   1.267       .  A
C207       C2213   1.465       .  S
O208       Cr217   2.003       .  S
O208        C216   1.264       .  A
O209       Cr217   1.970       .  S
O209        C210   1.262       .  A
C210        O211   1.275       .  A
C210       C1893   1.490       .  S
O211       Cr218   2.038       .  S
O212       Cr218   1.967       .  S
O212        C213   1.262       .  A
C213        O214   1.270       .  A
C213       C2015   1.480       .  S
O214       Cr219   2.012       .  S
O215       Cr219   1.989       .  S
O215        C216   1.260       .  A
C216       C1915   1.481       .  S
Cr217       O220   1.763       .  S
Cr218       O220   1.775       .  S
Cr219       O220   1.776       .  S
O221       Cr239   2.027       .  S
O221        C229   1.269       .  A
O222       Cr239   1.960       .  S
O222        C223   1.257       .  A
C223        O224   1.270       .  A
C223       C1805   1.487       .  S
O224       Cr240   2.036       .  S
O225       Cr240   1.984       .  S
O225        C226   1.258       .  A
C226        O227   1.263       .  A
C226       C2785   1.466       .  S
O227       Cr241   2.001       .  S
O228       Cr241   1.974       .  S
O228        C229   1.257       .  A
C229       C2543   1.475       .  S
O230       Cr239   1.975       .  S
O230        C238   1.260       .  A
O231       Cr239   2.031       .  S
O231        C232   1.271       .  A
C232        O233   1.261       .  A
C232       C1861   1.491       .  S
O233       Cr240   1.968       .  S
O234       Cr240   2.036       .  S
O234        C235   1.274       .  A
C235        O236   1.261       .  A
C235       C1839   1.490       .  S
O236       Cr241   1.966       .  S
O237       Cr241   2.017       .  S
O237        C238   1.268       .  A
C238       C1971   1.479       .  S
Cr239       O242   1.772       .  S
Cr240       O242   1.778       .  S
Cr241       O242   1.765       .  S
O243       Cr261   1.963       .  S
O243        C251   1.259       .  A
O244       Cr261   1.995       .  S
O244        C245   1.263       .  A
C245        O246   1.262       .  A
C245       C2609   1.478       .  S
O246       Cr262   2.002       .  S
O247       Cr262   2.036       .  S
O247        C248   1.269       .  A
C248        O249   1.254       .  A
C248       C1761   1.484       .  S
O249       Cr263   1.966       .  S
O250       Cr263   2.024       .  S
O250        C251   1.270       .  A
C251       C2399   1.480       .  S
O252       Cr261   2.003       .  S
O252        C260   1.264       .  A
O253       Cr261   1.965       .  S
O253        C254   1.261       .  A
C254        O255   1.276       .  A
C254       C1783   1.493       .  S
O255       Cr262   2.047       .  S
O256       Cr262   1.968       .  S
O256        C257   1.263       .  A
C257        O258   1.273       .  A
C257       C1849   1.491       .  S
O258       Cr263   2.030       .  S
O259       Cr263   1.985       .  S
O259        C260   1.260       .  A
C260       C1905   1.482       .  S
Cr261       O264   1.761       .  S
Cr262       O264   1.779       .  S
Cr263       O264   1.774       .  S
O265       Cr283   2.021       .  S
O265        C273   1.269       .  A
O266       Cr283   1.971       .  S
O266        C267   1.257       .  A
C267        O268   1.269       .  A
C267       C1695   1.489       .  S
O268       Cr284   2.031       .  S
O269       Cr284   1.998       .  S
O269        C270   1.262       .  A
C270        O271   1.263       .  A
C270       C2147   1.474       .  S
O271       Cr285   1.997       .  S
O272       Cr285   1.971       .  S
O272        C273   1.260       .  A
C273       C2807   1.474       .  S
O274       Cr283   1.981       .  S
O274        C282   1.259       .  A
O275       Cr283   2.019       .  S
O275        C276   1.271       .  A
C276        O277   1.261       .  A
C276       C1739   1.480       .  S
O277       Cr284   1.965       .  S
O278       Cr284   2.043       .  S
O278        C279   1.274       .  A
C279        O280   1.261       .  A
C279       C1717   1.492       .  S
O280       Cr285   1.970       .  S
O281       Cr285   2.005       .  S
O281        C282   1.264       .  A
C282       C1827   1.479       .  S
Cr283       O286   1.774       .  S
Cr284       O286   1.777       .  S
Cr285       O286   1.761       .  S
O287       Cr305   1.964       .  S
O287        C295   1.258       .  A
O288       Cr305   2.000       .  S
O288        C289   1.263       .  A
C289        O290   1.262       .  A
C289       C2059   1.475       .  S
O290       Cr306   1.997       .  S
O291       Cr306   2.033       .  S
O291        C292   1.270       .  A
C292        O293   1.259       .  A
C292       C1651   1.491       .  S
O293       Cr307   1.974       .  S
O294       Cr307   2.014       .  S
O294        C295   1.267       .  A
C295       C2631   1.467       .  S
O296       Cr305   2.007       .  S
O296        C304   1.265       .  A
O297       Cr305   1.961       .  S
O297        C298   1.259       .  A
C298        O299   1.274       .  A
C298       C1673   1.488       .  S
O299       Cr306   2.037       .  S
O300       Cr306   1.968       .  S
O300        C301   1.261       .  A
C301        O302   1.268       .  A
C301       C1751   1.480       .  S
O302       Cr307   2.012       .  S
O303       Cr307   1.983       .  S
O303        C304   1.260       .  A
C304       C1795   1.481       .  S
Cr305       O308   1.764       .  S
Cr306       O308   1.779       .  S
Cr307       O308   1.775       .  S
O309       Cr327   2.016       .  S
O309        C317   1.268       .  A
O310       Cr327   1.970       .  S
O310        C311   1.257       .  A
C311        O312   1.269       .  A
C311       C1619   1.489       .  S
O312       Cr328   2.038       .  S
O313       Cr328   2.000       .  S
O313        C314   1.262       .  A
C314        O315   1.261       .  A
C314       C2367   1.473       .  S
O315       Cr329   1.993       .  S
O316       Cr329   1.964       .  S
O316        C317   1.259       .  A
C317       C2169   1.467       .  S
O318       Cr327   1.987       .  S
O318        C326   1.260       .  A
O319       Cr327   2.015       .  S
O319        C320   1.270       .  A
C320        O321   1.261       .  A
C320       C1629   1.483       .  S
O321       Cr328   1.966       .  S
O322       Cr328   2.037       .  S
O322        C323   1.274       .  A
C323        O324   1.262       .  A
C323       C1993   1.488       .  S
O324       Cr329   1.965       .  S
O325       Cr329   2.004       .  S
O325        C326   1.262       .  A
C326       C1729   1.478       .  S
Cr327       O330   1.775       .  S
Cr328       O330   1.782       .  S
Cr329       O330   1.764       .  S
O331       Cr349   1.975       .  S
O331        C339   1.261       .  A
O332       Cr349   1.999       .  S
O332        C333   1.263       .  A
C333        O334   1.263       .  A
C333       C2235   1.476       .  S
O334       Cr350   2.001       .  S
O335       Cr350   2.033       .  S
O335        C336   1.268       .  A
C336        O337   1.256       .  A
C336       C1597   1.487       .  S
O337       Cr351   1.965       .  S
O338       Cr351   2.020       .  S
O338        C339   1.269       .  A
C339       C2081   1.475       .  S
O340       Cr349   2.006       .  S
O340        C348   1.264       .  A
O341       Cr349   1.975       .  S
O341        C342   1.263       .  A
C342        O343   1.273       .  A
C342       C1927   1.489       .  S
O343       Cr350   2.032       .  S
O344       Cr350   1.962       .  S
O344        C345   1.259       .  A
C345        O346   1.271       .  A
C345       C1641   1.483       .  S
O346       Cr351   2.020       .  S
O347       Cr351   1.978       .  S
O347        C348   1.258       .  A
C348       C1685   1.477       .  S
Cr349       O352   1.762       .  S
Cr350       O352   1.775       .  S
Cr351       O352   1.773       .  S
O353       Cr371   2.017       .  S
O353        C361   1.269       .  A
O354       Cr371   1.968       .  S
O354        C355   1.257       .  A
C355        O356   1.271       .  A
C355       C1883   1.493       .  S
O356       Cr372   2.042       .  S
O357       Cr372   2.005       .  S
O357        C358   1.263       .  A
C358        O359   1.263       .  A
C358       C1541   1.483       .  S
O359       Cr373   1.999       .  S
O360       Cr373   1.971       .  S
O360        C361   1.261       .  A
C361       C1563   1.473       .  S
O362       Cr371   1.985       .  S
O362        C370   1.259       .  A
O363       Cr371   2.017       .  S
O363        C364   1.270       .  A
C364        O365   1.260       .  A
C364       C1519   1.482       .  S
O365       Cr372   1.963       .  S
O366       Cr372   2.043       .  S
O366        C367   1.276       .  A
C367        O368   1.260       .  A
C367       C1475   1.489       .  S
O368       Cr373   1.965       .  S
O369       Cr373   2.004       .  S
O369        C370   1.264       .  A
C370       C1509   1.478       .  S
Cr371       O374   1.772       .  S
Cr372       O374   1.776       .  S
Cr373       O374   1.761       .  S
O375       Cr393   1.964       .  S
O375        C383   1.259       .  A
O376       Cr393   1.994       .  S
O376        C377   1.262       .  A
C377        O378   1.262       .  A
C377       C1409   1.471       .  S
O378       Cr394   1.996       .  S
O379       Cr394   2.034       .  S
O379        C380   1.268       .  A
C380        O381   1.257       .  A
C380       C1937   1.488       .  S
O381       Cr395   1.972       .  S
O382       Cr395   2.018       .  S
O382        C383   1.268       .  A
C383       C1387   1.476       .  S
O384       Cr393   1.999       .  S
O384        C392   1.263       .  A
O385       Cr393   1.967       .  S
O385        C386   1.260       .  A
C386        O387   1.274       .  A
C386       C1431   1.492       .  S
O387       Cr394   2.042       .  S
O388       Cr394   1.965       .  S
O388        C389   1.262       .  A
C389        O390   1.271       .  A
C389       C1531   1.482       .  S
O390       Cr395   2.017       .  S
O391       Cr395   1.990       .  S
O391        C392   1.261       .  A
C392       C1465   1.480       .  S
Cr393       O396   1.761       .  S
Cr394       O396   1.781       .  S
Cr395       O396   1.775       .  S
O397       Cr415   2.018       .  S
O397        C405   1.269       .  A
O398       Cr415   1.964       .  S
O398        C399   1.257       .  A
C399        O400   1.270       .  A
C399       C1663   1.488       .  S
O400       Cr416   2.037       .  S
O401       Cr416   2.006       .  S
O401        C402   1.263       .  A
C402        O403   1.261       .  A
C402       C1355   1.479       .  S
O403       Cr417   1.995       .  S
O404       Cr417   1.959       .  S
O404        C405   1.258       .  A
C405       C1365   1.468       .  S
O406       Cr415   1.982       .  S
O406        C414   1.258       .  A
O407       Cr415   2.014       .  S
O407        C408   1.270       .  A
C408        O409   1.261       .  A
C408       C1333   1.481       .  S
O409       Cr416   1.967       .  S
O410       Cr416   2.041       .  S
O410        C411   1.276       .  A
C411        O412   1.261       .  A
C411       C1277   1.487       .  S
O412       Cr417   1.963       .  S
O413       Cr417   1.998       .  S
O413        C414   1.263       .  A
C414       C1299   1.472       .  S
Cr415       O418   1.772       .  S
Cr416       O418   1.772       .  S
Cr417       O418   1.760       .  S
O419       Cr437   1.965       .  S
O419        C427   1.257       .  A
O420       Cr437   1.991       .  S
O420        C421   1.262       .  A
C421        O422   1.259       .  A
C421       C1189   1.464       .  S
O422       Cr438   1.987       .  S
O423       Cr438   2.034       .  S
O423        C424   1.271       .  A
C424        O425   1.258       .  A
C424       C1707   1.488       .  S
O425       Cr439   1.968       .  S
O426       Cr439   2.020       .  S
O426        C427   1.267       .  A
C427       C1211   1.469       .  S
O428       Cr437   1.998       .  S
O428        C436   1.264       .  A
O429       Cr437   1.960       .  S
O429        C430   1.258       .  A
C430        O431   1.274       .  A
C430       C1245   1.488   1_455  S
O431       Cr438   2.041       .  S
O432       Cr438   1.968       .  S
O432        C433   1.261       .  A
C433        O434   1.270       .  A
C433       C1321   1.481       .  S
O434       Cr439   2.014       .  S
O435       Cr439   1.979       .  S
O435        C436   1.259       .  A
C436       C1255   1.470       .  S
Cr437       O440   1.758       .  S
Cr438       O440   1.776       .  S
Cr439       O440   1.769       .  S
O441       Cr459   2.014       .  S
O441        C449   1.265       .  A
O442       Cr459   1.974       .  S
O442        C443   1.257       .  A
C443        O444   1.269       .  A
C443       C1773   1.484       .  S
O444       Cr460   2.031       .  S
O445       Cr460   1.995       .  S
O445        C446   1.261       .  A
C446        O447   1.264       .  A
C446       C1167   1.476       .  S
O447       Cr461   1.999       .  S
O448       Cr461   1.956       .  S
O448        C449   1.256       .  A
C449       C1145   1.467       .  S
O450       Cr459   1.991       .  S
O450        C458   1.263       .  A
O451       Cr459   2.018       .  S
O451        C452   1.271       .  A
C452        O453   1.263       .  A
C452       C1123   1.484       .  S
O453       Cr460   1.971       .  S
O454       Cr460   2.041       .  S
O454        C455   1.274       .  A
C455        O456   1.260       .  A
C455       C1497   1.492       .  S
O456       Cr461   1.964       .  S
O457       Cr461   2.005       .  S
O457        C458   1.265       .  A
C458       C1289   1.483       .  S
Cr459       O462   1.775       .  S
Cr460       O462   1.780       .  S
Cr461       O462   1.759       .  S
O463       Cr481   1.971       .  S
O463        C471   1.259       .  A
O464       Cr481   1.997       .  S
O464        C465   1.262       .  A
C465        O466   1.262       .  A
C465       C1113   1.474       .  S
O466       Cr482   1.998       .  S
O467       Cr482   2.045       .  S
O467        C468   1.272       .  A
C468        O469   1.255       .  A
C468       C1817   1.488       .  S
O469       Cr483   1.953       .  S
O470       Cr483   2.017       .  S
O470        C471   1.268       .  A
C471       C1091   1.475       .  S
O472       Cr481   2.009       .  S
O472        C480   1.266       .  A
O473       Cr481   1.964       .  S
O473        C474   1.261       .  A
C474        O475   1.276       .  A
C474       C1453   1.492       .  S
O475       Cr482   2.044       .  S
O476       Cr482   1.974       .  S
O476        C477   1.262       .  A
C477        O478   1.270       .  A
C477       C1135   1.487       .  S
O478       Cr483   2.018       .  S
O479       Cr483   1.977       .  S
O479        C480   1.259       .  A
C480       C1233   1.477       .  S
Cr481       O484   1.761       .  S
Cr482       O484   1.780       .  S
Cr483       O484   1.771       .  S
O485       Cr503   2.026       .  S
O485        C493   1.272       .  A
O486       Cr503   1.968       .  S
O486        C487   1.258       .  A
C487        O488   1.268       .  A
C487       C1585   1.485       .  S
O488       Cr504   2.026       .  S
O489       Cr504   2.000       .  S
O489        C490   1.260       .  A
C490        O491   1.261       .  A
C490       C1035   1.474       .  S
O491       Cr505   1.996       .  S
O492       Cr505   1.967       .  S
O492        C493   1.261       .  A
C493       C1069   1.472       .  S
O494       Cr503   1.982       .  S
O494        C502   1.258       .  A
O495       Cr503   2.024       .  S
O495        C496   1.272       .  A
C496        O497   1.258       .  A
C496       C1013   1.486       .  S
O497       Cr504   1.961       .  S
O498       Cr504   2.033       .  S
O498        C499   1.274       .  A
C499        O500   1.261       .  A
C499       C1311   1.481   1_545  S
O500       Cr505   1.957       .  S
O501       Cr505   2.008       .  S
O501        C502   1.262       .  A
C502       C1487   1.477       .  S
Cr503       O506   1.769       .  S
Cr504       O506   1.776       .  S
Cr505       O506   1.762       .  S
O507       Cr525   1.959       .  S
O507        C515   1.257       .  A
O508       Cr525   1.995       .  S
O508        C509   1.263       .  A
C509        O510   1.262       .  A
C509        C969   1.472       .  S
O510       Cr526   1.994       .  S
O511       Cr526   2.038       .  S
O511        C512   1.269       .  A
C512        O513   1.257       .  A
C512       C1607   1.487       .  S
O513       Cr527   1.970       .  S
O514       Cr527   2.022       .  S
O514        C515   1.267       .  A
C515        C991   1.469       .  S
O516       Cr525   2.005       .  S
O516        C524   1.264       .  A
O517       Cr525   1.963       .  S
O517        C518   1.260       .  A
C518        O519   1.273       .  A
C518       C1267   1.485   1_545  S
O519       Cr526   2.033       .  S
O520       Cr526   1.973       .  S
O520        C521   1.262       .  A
C521        O522   1.272       .  A
C521       C1025   1.486       .  S
O522       Cr527   2.019       .  S
O523       Cr527   1.988       .  S
O523        C524   1.261       .  A
C524       C1443   1.480       .  S
Cr525       O528   1.763       .  S
Cr526       O528   1.782       .  S
Cr527       O528   1.773       .  S
O529       Cr547   1.968       .  S
O529        C537   1.258       .  A
O530       Cr547   1.996       .  S
O530        C531   1.261       .  A
C531        O532   1.262       .  A
C531       C1101   1.480       .  S
O532       Cr548   2.010       .  S
O533       Cr548   2.028       .  S
O533        C534   1.266       .  A
C534        O535   1.259       .  A
C534       C2267   1.487       .  S
O535       Cr549   1.977       .  S
O536       Cr549   2.012       .  S
O536        C537   1.268       .  A
C537       C1399   1.465       .  S
O538       Cr547   2.008       .  S
O538        C546   1.264       .  A
O539       Cr547   1.965       .  S
O539        C540   1.261       .  A
C540        O541   1.275       .  A
C540        C915   1.491   1_545  S
O541       Cr548   2.044       .  S
O542       Cr548   1.970       .  S
O542        C543   1.264       .  A
C543        O544   1.270       .  A
C543        C947   1.484       .  S
O544       Cr549   2.016       .  S
O545       Cr549   1.993       .  S
O545        C546   1.262       .  A
C546        C925   1.487       .  S
Cr547       O550   1.765       .  S
Cr548       O550   1.778       .  S
Cr549       O550   1.774       .  S
O551       Cr569   2.014       .  S
O551        C559   1.269       .  A
O552       Cr569   1.969       .  S
O552        C553   1.259       .  A
C553        O554   1.270       .  A
C553       C2191   1.490       .  S
O554       Cr570   2.034       .  S
O555       Cr570   2.005       .  S
O555        C556   1.262       .  A
C556        O557   1.261       .  A
C556       C1179   1.481       .  S
O557       Cr571   1.995       .  S
O558       Cr571   1.973       .  S
O558        C559   1.261       .  A
C559       C1575   1.474       .  S
O560       Cr569   1.991       .  S
O560        C568   1.261       .  A
O561       Cr569   2.015       .  S
O561        C562   1.268       .  A
C562        O563   1.261       .  A
C562        C959   1.484       .  S
O563       Cr570   1.968       .  S
O564       Cr570   2.040       .  S
O564        C565   1.275       .  A
C565        O566   1.261       .  A
C565        C859   1.487   1_545  S
O566       Cr571   1.962       .  S
O567       Cr571   2.003       .  S
O567        C568   1.263       .  A
C568        C893   1.484       .  S
Cr569       O572   1.773       .  S
Cr570       O572   1.777       .  S
Cr571       O572   1.764       .  S
O573       Cr591   1.965       .  S
O573        C581   1.258       .  A
O574       Cr591   1.994       .  S
O574        C575   1.263       .  A
C575        O576   1.261       .  A
C575       C1201   1.471       .  S
O576       Cr592   1.995       .  S
O577       Cr592   2.034       .  S
O577        C578   1.268       .  A
C578        O579   1.257       .  A
C578       C2477   1.487       .  S
O579       Cr593   1.969       .  S
O580       Cr593   2.021       .  S
O580        C581   1.269       .  A
C581       C1079   1.472       .  S
O582       Cr591   2.004       .  S
O582        C590   1.265       .  A
O583       Cr591   1.965       .  S
O583        C584   1.261       .  A
C584        O585   1.274       .  A
C584        C815   1.487       .  S
O585       Cr592   2.038       .  S
O586       Cr592   1.968       .  S
O586        C587   1.261       .  A
C587        O588   1.272       .  A
C587        C837   1.487       .  S
O588       Cr593   2.023       .  S
O589       Cr593   1.986       .  S
O589        C590   1.261       .  A
C590        C903   1.483       .  S
Cr591       O594   1.761       .  S
Cr592       O594   1.776       .  S
Cr593       O594   1.770       .  S
O595       Cr613   2.016       .  S
O595        C603   1.267       .  A
O596       Cr613   1.971       .  S
O596        C597   1.257       .  A
C597        O598   1.270       .  A
C597       C2389   1.494       .  S
O598       Cr614   2.035       .  S
O599       Cr614   2.004       .  S
O599        C600   1.264       .  A
C600        O601   1.261       .  A
C600       C1343   1.478       .  S
O601       Cr615   1.997       .  S
O602       Cr615   1.955       .  S
O602        C603   1.256       .  A
C603       C1157   1.462       .  S
O604       Cr613   1.982       .  S
O604        C612   1.259       .  A
O605       Cr613   2.020       .  S
O605        C606   1.271       .  A
C606        O607   1.264       .  A
C606        C849   1.490       .  S
O607       Cr614   1.977       .  S
O608       Cr614   2.040       .  S
O608        C609   1.275       .  A
C609        O610   1.261       .  A
C609        C793   1.491       .  S
O610       Cr615   1.967       .  S
O611       Cr615   1.999       .  S
O611        C612   1.263       .  A
C612        C871   1.476       .  S
Cr613       O616   1.778       .  S
Cr614       O616   1.777       .  S
Cr615       O616   1.766       .  S
O617       Cr635   1.967       .  S
O617        C625   1.261       .  A
O618       Cr635   1.996       .  S
O618        C619   1.263       .  A
C619        O620   1.263       .  A
C619        C981   1.474       .  S
O620       Cr636   1.998       .  S
O621       Cr636   2.039       .  S
O621        C622   1.270       .  A
C622        O623   1.258       .  A
C622       C2697   1.497       .  S
O623       Cr637   1.972       .  S
O624       Cr637   2.014       .  S
O624        C625   1.269       .  A
C625       C1223   1.472       .  S
O626       Cr635   2.000       .  S
O626        C634   1.263       .  A
O627       Cr635   1.965       .  S
O627        C628   1.260       .  A
C628        O629   1.274       .  A
C628        C761   1.490       .  S
O629       Cr636   2.048       .  S
O630       Cr636   1.957       .  S
O630        C631   1.260       .  A
C631        O632   1.269       .  A
C631        C783   1.479       .  S
O632       Cr637   2.016       .  S
O633       Cr637   1.986       .  S
O633        C634   1.260       .  A
C634        C827   1.481       .  S
Cr635       O638   1.761       .  S
Cr636       O638   1.777       .  S
Cr637       O638   1.775       .  S
O639       Cr657   2.009       .  S
O639        C647   1.265       .  A
O640       Cr657   1.967       .  S
O640        C641   1.257       .  A
C641        O642   1.269       .  A
C641       C2587   1.487       .  S
O642       Cr658   2.032       .  S
O643       Cr658   1.994       .  S
O643        C644   1.262       .  A
C644        O645   1.263       .  A
C644       C1047   1.471       .  S
O645       Cr659   1.997       .  S
O646       Cr659   1.960       .  S
O646        C647   1.256       .  A
C647       C1377   1.462       .  S
O648       Cr657   1.984       .  S
O648        C656   1.261       .  A
O649       Cr657   2.007       .  S
O649        C650   1.267       .  A
C650        O651   1.262       .  A
C650        C771   1.478       .  S
O651       Cr658   1.970       .  S
O652       Cr658   2.034       .  S
O652        C653   1.272       .  A
C653        O654   1.259       .  A
C653        C727   1.485       .  S
O654       Cr659   1.960       .  S
O655       Cr659   2.012       .  S
O655        C656   1.266       .  A
C656        C805   1.484       .  S
Cr657       O660   1.772       .  S
Cr658       O660   1.777       .  S
Cr659       O660   1.759       .  S
O661       Cr679   1.968       .  S
O661        C669   1.259       .  A
O662       Cr679   1.988       .  S
O662        C663   1.262       .  A
C663        O664   1.263       .  A
C663       C1421   1.476       .  S
O664       Cr680   2.006       .  S
O665       Cr680   2.038       .  S
O665        C666   1.270       .  A
C666        O667   1.256       .  A
C666       C2103   1.488       .  S
O667       Cr681   1.965       .  S
O668       Cr681   2.020       .  S
O668        C669   1.270       .  A
C669       C1003   1.475       .  S
O670       Cr679   2.001       .  S
O670        C678   1.264       .  A
O671       Cr679   1.971       .  S
O671        C672   1.262       .  A
C672        O673   1.277       .  A
C672        C937   1.494       .  S
O673       Cr680   2.047       .  S
O674       Cr680   1.967       .  S
O674        C675   1.261       .  A
C675        O676   1.270       .  A
C675        C717   1.484       .  S
O676       Cr681   2.017       .  S
O677       Cr681   1.985       .  S
O677        C678   1.259       .  A
C678        C749   1.482       .  S
Cr679       O682   1.759       .  S
Cr680       O682   1.774       .  S
Cr681       O682   1.770       .  S
O683       Cr701   2.019       .  S
O683        C691   1.267       .  A
O684       Cr701   1.961       .  S
O684        C685   1.255       .  A
C685        O686   1.269       .  A
C685       C2037   1.481       .  S
O686       Cr702   2.039       .  S
O687       Cr702   2.009       .  S
O687        C688   1.265       .  A
C688        O689   1.263       .  A
C688       C1553   1.480       .  S
O689       Cr703   1.991       .  S
O690       Cr703   1.965       .  S
O690        C691   1.258       .  A
C691       C1057   1.476       .  S
O692       Cr701   1.974       .  S
O692        C700   1.258       .  A
O693       Cr701   2.012       .  S
O693        C694   1.270       .  A
C694        O695   1.264       .  A
C694        C705   1.483       .  S
O695       Cr702   1.977       .  S
O696       Cr702   2.038       .  S
O696        C697   1.274       .  A
C697        O698   1.261       .  A
C697        C881   1.490       .  S
O698       Cr703   1.969       .  S
O699       Cr703   2.003       .  S
O699        C700   1.265       .  A
C700        C739   1.474       .  S
Cr701       O704   1.771       .  S
Cr702       O704   1.778       .  S
Cr703       O704   1.760       .  S
C705        C706   1.402       .  A
C705        C710   1.402       .  A
C706        C707   1.397       .  A
C706        H719   1.083       .  S
C707        C708   1.414       .  A
C707        H720   1.077       .  S
C708        C714   1.431   1_556  A
C708        C709   1.423       .  A
C709        C711   1.399       .  A
C709        C710   1.405       .  A
C710        H721   1.084       .  S
C711        C712   1.389   1_556  A
C711        H722   1.084       .  S
C712        C713   1.399       .  A
C712        H723   1.084       .  S
C713        C714   1.421       .  A
C713        C718   1.403       .  A
C714        C715   1.416       .  A
C715        C716   1.399       .  A
C715        H724   1.077       .  S
C716        C717   1.401       .  A
C716        H725   1.083       .  S
C717        C718   1.403       .  A
C718        H726   1.084       .  S
C727        C728   1.402   1_565  A
C727        C732   1.403       .  A
C728        C729   1.403       .  A
C728        H741   1.083       .  S
C729        C730   1.418       .  A
C729        H742   1.078       .  S
C730        C736   1.432       .  A
C730        C731   1.421       .  A
C731        C733   1.399       .  A
C731        C732   1.400   1_545  A
C732        H743   1.085       .  S
C733        C734   1.386       .  A
C733        H744   1.084       .  S
C734        C735   1.397       .  A
C734        H745   1.084       .  S
C735        C736   1.423       .  A
C735        C740   1.401       .  A
C736        C737   1.416       .  A
C737        C738   1.401       .  A
C737        H746   1.078       .  S
C738        C739   1.401       .  A
C738        H747   1.083       .  S
C739        C740   1.397       .  A
C740        H748   1.085       .  S
C749        C750   1.403       .  A
C749        C754   1.398       .  A
C750        C751   1.406       .  A
C750        H763   1.083       .  S
C751        C752   1.417       .  A
C751        H764   1.079       .  S
C752        C758   1.436       .  A
C752        C753   1.423       .  A
C753        C755   1.396       .  A
C753        C754   1.400       .  A
C754        H765   1.085       .  S
C755        C756   1.384       .  A
C755        H766   1.084       .  S
C756        C757   1.398       .  A
C756        H767   1.084       .  S
C757        C758   1.421       .  A
C757        C762   1.399       .  A
C758        C759   1.420       .  A
C759        C760   1.409       .  A
C759        H768   1.079       .  S
C760        C761   1.404   1_545  A
C760        H769   1.083       .  S
C761        C762   1.402   1_565  A
C762        H770   1.085   1_545  S
C771        C772   1.402       .  A
C771        C776   1.399       .  A
C772        C773   1.397       .  A
C772        H785   1.083       .  S
C773        C774   1.414       .  A
C773        H786   1.078       .  S
C774        C780   1.429   1_556  A
C774        C775   1.423       .  A
C775        C777   1.397       .  A
C775        C776   1.400       .  A
C776        H787   1.085       .  S
C777        C778   1.385   1_556  A
C777        H788   1.084       .  S
C778        C779   1.398       .  A
C778        H789   1.084       .  S
C779        C780   1.421       .  A
C779        C784   1.397       .  A
C780        C781   1.417       .  A
C781        C782   1.400       .  A
C781        H790   1.078       .  S
C782        C783   1.401       .  A
C782        H791   1.083       .  S
C783        C784   1.401       .  A
C784        H792   1.085       .  S
C793        C794   1.403   1_655  A
C793        C798   1.405   1_655  A
C794        C795   1.404       .  A
C794        H807   1.083       .  S
C795        C796   1.417       .  A
C795        H808   1.078       .  S
C796        C802   1.435       .  A
C796        C797   1.422       .  A
C797        C799   1.400       .  A
C797        C798   1.405       .  A
C798        H809   1.084   1_455  S
C799        C800   1.389       .  A
C799        H810   1.084       .  S
C800        C801   1.399       .  A
C800        H811   1.084       .  S
C801        C802   1.423       .  A
C801        C806   1.407       .  A
C802        C803   1.416       .  A
C803        C804   1.403       .  A
C803        H812   1.078       .  S
C804        C805   1.402       .  A
C804        H813   1.083       .  S
C805        C806   1.401       .  A
C806        H814   1.085       .  S
C815        C816   1.402   1_655  A
C815        C820   1.403   1_655  A
C816        C817   1.403       .  A
C816        H829   1.083       .  S
C817        C818   1.417       .  A
C817        H830   1.078       .  S
C818        C824   1.434       .  A
C818        C819   1.422       .  A
C819        C821   1.399       .  A
C819        C820   1.403       .  A
C820        H831   1.085   1_455  S
C821        C822   1.388       .  A
C821        H832   1.084       .  S
C822        C823   1.398       .  A
C822        H833   1.084       .  S
C823        C824   1.423       .  A
C823        C828   1.404       .  A
C824        C825   1.416       .  A
C825        C826   1.402       .  A
C825        H834   1.078       .  S
C826        C827   1.401       .  A
C826        H835   1.083       .  S
C827        C828   1.400       .  A
C828        H836   1.085       .  S
C837        C838   1.402       .  A
C837        C842   1.404       .  A
C838        C839   1.400       .  A
C838        H851   1.083       .  S
C839        C840   1.416       .  A
C839        H852   1.077       .  S
C840        C846   1.434   1_554  A
C840        C841   1.423       .  A
C841        C843   1.399       .  A
C841        C842   1.406       .  A
C842        H853   1.084       .  S
C843        C844   1.389   1_554  A
C843        H854   1.084       .  S
C844        C845   1.399       .  A
C844        H855   1.084       .  S
C845        C846   1.422       .  A
C845        C850   1.406       .  A
C846        C847   1.416       .  A
C847        C848   1.402       .  A
C847        H856   1.077       .  S
C848        C849   1.403       .  A
C848        H857   1.083       .  S
C849        C850   1.404       .  A
C850        H858   1.084       .  S
C859        C860   1.402       .  A
C859        C864   1.404       .  A
C860        C861   1.403       .  A
C860        H873   1.083       .  S
C861        C862   1.417       .  A
C861        H874   1.078       .  S
C862        C868   1.433       .  A
C862        C863   1.422       .  A
C863        C865   1.399       .  A
C863        C864   1.402       .  A
C864        H875   1.085   1_565  S
C865        C866   1.387       .  A
C865        H876   1.084       .  S
C866        C867   1.398       .  A
C866        H877   1.084       .  S
C867        C868   1.423       .  A
C867        C872   1.403       .  A
C868        C869   1.417       .  A
C869        C870   1.402       .  A
C869        H878   1.078       .  S
C870        C871   1.401       .  A
C870        H879   1.083       .  S
C871        C872   1.398       .  A
C872        H880   1.085       .  S
C881        C882   1.402   1_455  A
C881        C886   1.404   1_455  A
C882        C883   1.404       .  A
C882        H895   1.083       .  S
C883        C884   1.417       .  A
C883        H896   1.078       .  S
C884        C890   1.435       .  A
C884        C885   1.422       .  A
C885        C887   1.400       .  A
C885        C886   1.405       .  A
C886        H897   1.084   1_655  S
C887        C888   1.389       .  A
C887        H898   1.084       .  S
C888        C889   1.399       .  A
C888        H899   1.084       .  S
C889        C890   1.422       .  A
C889        C894   1.405       .  A
C890        C891   1.416       .  A
C891        C892   1.403       .  A
C891        H900   1.078       .  S
C892        C893   1.401       .  A
C892        H901   1.083       .  S
C893        C894   1.402       .  A
C894        H902   1.085       .  S
C903        C904   1.402       .  A
C903        C908   1.399       .  A
C904        C905   1.405       .  A
C904        H917   1.083       .  S
C905        C906   1.417       .  A
C905        H918   1.078       .  S
C906        C912   1.437       .  A
C906        C907   1.423       .  A
C907        C909   1.398       .  A
C907        C908   1.403       .  A
C908        H919   1.085       .  S
C909        C910   1.387       .  A
C909        H920   1.084       .  S
C910        C911   1.399       .  A
C910        H921   1.084       .  S
C911        C912   1.422       .  A
C911        C916   1.403       .  A
C912        C913   1.418       .  A
C913        C914   1.406       .  A
C913        H922   1.078       .  S
C914        C915   1.403       .  A
C914        H923   1.083       .  S
C915        C916   1.403       .  A
C916        H924   1.084   1_565  S
C925        C926   1.401       .  A
C925        C930   1.403       .  A
C926        C927   1.401       .  A
C926        H939   1.084       .  S
C927        C928   1.416       .  A
C927        H940   1.078       .  S
C928        C934   1.436       .  A
C928        C929   1.423       .  A
C929        C931   1.401       .  A
C929        C930   1.412       .  A
C930        H941   1.084       .  S
C931        C932   1.394       .  A
C931        H942   1.084       .  S
C932        C933   1.400       .  A
C932        H943   1.084       .  S
C933        C934   1.423       .  A
C933        C938   1.413       .  A
C934        C935   1.413       .  A
C935        C936   1.399       .  A
C935        H944   1.078       .  S
C936        C937   1.405   1_655  A
C936        H945   1.083   1_655  S
C937        C938   1.405   1_455  A
C938        H946   1.084       .  S
C947        C948   1.400       .  A
C947        C952   1.405       .  A
C948        C949   1.392       .  A
C948        H961   1.083       .  S
C949        C950   1.413       .  A
C949        H962   1.077       .  S
C950        C956   1.429   1_554  A
C950        C951   1.422       .  A
C951        C953   1.401       .  A
C951        C952   1.410       .  A
C952        H963   1.084       .  S
C953        C954   1.394   1_554  A
C953        H964   1.084       .  S
C954        C955   1.401       .  A
C954        H965   1.084       .  S
C955        C956   1.422       .  A
C955        C960   1.410       .  A
C956        C957   1.413       .  A
C957        C958   1.392       .  A
C957        H966   1.077       .  S
C958        C959   1.401       .  A
C958        H967   1.083       .  S
C959        C960   1.405       .  A
C960        H968   1.084       .  S
C969        C970   1.398       .  A
C969        C974   1.398       .  A
C970        C971   1.403       .  A
C970        H983   1.083       .  S
C971        C972   1.418       .  A
C971        H984   1.078   1_545  S
C972        C978   1.433   1_545  A
C972        C973   1.423       .  A
C973        C975   1.398       .  A
C973        C974   1.401       .  A
C974        H985   1.085       .  S
C975        C976   1.386       .  A
C975        H986   1.084       .  S
C976        C977   1.398       .  A
C976        H987   1.084       .  S
C977        C978   1.422   1_545  A
C977        C982   1.399   1_545  A
C978        C979   1.419       .  A
C979        C980   1.404       .  A
C979        H988   1.078       .  S
C980        C981   1.398       .  A
C980        H989   1.083       .  S
C981        C982   1.399       .  A
C982        H990   1.086   1_565  S
C991        C992   1.398       .  A
C991        C996   1.399       .  A
C992        C993   1.391       .  A
C992       H1005   1.084       .  S
C993        C994   1.413       .  A
C993       H1006   1.077       .  S
C994       C1000   1.427       .  A
C994        C995   1.424       .  A
C995        C997   1.400       .  A
C995        C996   1.407       .  A
C996       H1007   1.085       .  S
C997        C998   1.392       .  A
C997       H1008   1.084       .  S
C998        C999   1.401       .  A
C998       H1009   1.084       .  S
C999       C1000   1.421       .  A
C999       C1004   1.405       .  A
C1000      C1001   1.415       .  A
C1001      C1002   1.394       .  A
C1001      H1010   1.077       .  S
C1002      C1003   1.397       .  A
C1002      H1011   1.083       .  S
C1003      C1004   1.403       .  A
C1004      H1012   1.085       .  S
C1013      C1014   1.405       .  A
C1013      C1018   1.400       .  A
C1014      C1015   1.398       .  A
C1014      H1027   1.083       .  S
C1015      C1016   1.413       .  A
C1015      H1028   1.078       .  S
C1016      C1022   1.433       .  A
C1016      C1017   1.424       .  A
C1017      C1019   1.398       .  A
C1017      C1018   1.406       .  A
C1018      H1029   1.084       .  S
C1019      C1020   1.388       .  A
C1019      H1030   1.084       .  S
C1020      C1021   1.398       .  A
C1020      H1031   1.084       .  S
C1021      C1022   1.422       .  A
C1021      C1026   1.403       .  A
C1022      C1023   1.417       .  A
C1023      C1024   1.401       .  A
C1023      H1032   1.078       .  S
C1024      C1025   1.404       .  A
C1024      H1033   1.083       .  S
C1025      C1026   1.401       .  A
C1026      H1034   1.084       .  S
C1035      C1036   1.399       .  A
C1035      C1040   1.398       .  A
C1036      C1037   1.406       .  A
C1036      H1049   1.083       .  S
C1037      C1038   1.419   1_545  A
C1037      H1050   1.078       .  S
C1038      C1044   1.434       .  A
C1038      C1039   1.423       .  A
C1039      C1041   1.398       .  A
C1039      C1040   1.399   1_565  A
C1040      H1051   1.086   1_545  S
C1041      C1042   1.385       .  A
C1041      H1052   1.084       .  S
C1042      C1043   1.397       .  A
C1042      H1053   1.084       .  S
C1043      C1044   1.424       .  A
C1043      C1048   1.400       .  A
C1044      C1045   1.419       .  A
C1045      C1046   1.405       .  A
C1045      H1054   1.078   1_565  S
C1046      C1047   1.399       .  A
C1046      H1055   1.083       .  S
C1047      C1048   1.396       .  A
C1048      H1056   1.084       .  S
C1057      C1058   1.399       .  A
C1057      C1062   1.401       .  A
C1058      C1059   1.399       .  A
C1058      H1071   1.083       .  S
C1059      C1060   1.417       .  A
C1059      H1072   1.077       .  S
C1060      C1066   1.429       .  A
C1060      C1061   1.421       .  A
C1061      C1063   1.399       .  A
C1061      C1062   1.400       .  A
C1062      H1073   1.084       .  S
C1063      C1064   1.388       .  A
C1063      H1074   1.084       .  S
C1064      C1065   1.399       .  A
C1064      H1075   1.084       .  S
C1065      C1066   1.425       .  A
C1065      C1070   1.404       .  A
C1066      C1067   1.414       .  A
C1067      C1068   1.396       .  A
C1067      H1076   1.077       .  S
C1068      C1069   1.399       .  A
C1068      H1077   1.084       .  S
C1069      C1070   1.398       .  A
C1070      H1078   1.085       .  S
C1079      C1080   1.399       .  A
C1079      C1084   1.400       .  A
C1080      C1081   1.394       .  A
C1080      H1093   1.084       .  S
C1081      C1082   1.414       .  A
C1081      H1094   1.078       .  S
C1082      C1088   1.427       .  A
C1082      C1083   1.423       .  A
C1083      C1085   1.400       .  A
C1083      C1084   1.405       .  A
C1084      H1095   1.085       .  S
C1085      C1086   1.391       .  A
C1085      H1096   1.084       .  S
C1086      C1087   1.400       .  A
C1086      H1097   1.084       .  S
C1087      C1088   1.421       .  A
C1087      C1092   1.403       .  A
C1088      C1089   1.415       .  A
C1089      C1090   1.396       .  A
C1089      H1098   1.078       .  S
C1090      C1091   1.399       .  A
C1090      H1099   1.083       .  S
C1091      C1092   1.402       .  A
C1092      H1100   1.083       .  S
C1101      C1102   1.402       .  A
C1101      C1106   1.397   1_545  A
C1102      C1103   1.410       .  A
C1102      H1115   1.083       .  S
C1103      C1104   1.420   1_545  A
C1103      H1116   1.079       .  S
C1104      C1110   1.438       .  A
C1104      C1105   1.423       .  A
C1105      C1107   1.397       .  A
C1105      C1106   1.399       .  A
C1106      H1117   1.086       .  S
C1107      C1108   1.383       .  A
C1107      H1118   1.084       .  S
C1108      C1109   1.396       .  A
C1108      H1119   1.084       .  S
C1109      C1110   1.423       .  A
C1109      C1114   1.398       .  A
C1110      C1111   1.421       .  A
C1111      C1112   1.410       .  A
C1111      H1120   1.078   1_565  S
C1112      C1113   1.401       .  A
C1112      H1121   1.083       .  S
C1113      C1114   1.394       .  A
C1114      H1122   1.084       .  S
C1123      C1124   1.401       .  A
C1123      C1128   1.403       .  A
C1124      C1125   1.398       .  A
C1124      H1137   1.083       .  S
C1125      C1126   1.415       .  A
C1125      H1138   1.077       .  S
C1126      C1132   1.432       .  A
C1126      C1127   1.423       .  A
C1127      C1129   1.399       .  A
C1127      C1128   1.405       .  A
C1128      H1139   1.084       .  S
C1129      C1130   1.389       .  A
C1129      H1140   1.084       .  S
C1130      C1131   1.400       .  A
C1130      H1141   1.084       .  S
C1131      C1132   1.422       .  A
C1131      C1136   1.405       .  A
C1132      C1133   1.416       .  A
C1133      C1134   1.399       .  A
C1133      H1142   1.077       .  S
C1134      C1135   1.402       .  A
C1134      H1143   1.083       .  S
C1135      C1136   1.404       .  A
C1136      H1144   1.084       .  S
C1145      C1146   1.397       .  A
C1145      C1150   1.398       .  A
C1146      C1147   1.396       .  A
C1146      H1159   1.083       .  S
C1147      C1148   1.418       .  A
C1147      H1160   1.077       .  S
C1148      C1154   1.425       .  A
C1148      C1149   1.420       .  A
C1149      C1151   1.398       .  A
C1149      C1150   1.396       .  A
C1150      H1161   1.084       .  S
C1151      C1152   1.386       .  A
C1151      H1162   1.084       .  S
C1152      C1153   1.398       .  A
C1152      H1163   1.084       .  S
C1153      C1154   1.425       .  A
C1153      C1158   1.402       .  A
C1154      C1155   1.413       .  A
C1155      C1156   1.391       .  A
C1155      H1164   1.077       .  S
C1156      C1157   1.397       .  A
C1156      H1165   1.084       .  S
C1157      C1158   1.395       .  A
C1158      H1166   1.085       .  S
C1167      C1168   1.400       .  A
C1167      C1172   1.397       .  A
C1168      C1169   1.407       .  A
C1168      H1181   1.083       .  S
C1169      C1170   1.419       .  A
C1169      H1182   1.078       .  S
C1170      C1176   1.435       .  A
C1170      C1171   1.423       .  A
C1171      C1173   1.397       .  A
C1171      C1172   1.399       .  A
C1172      H1183   1.084       .  S
C1173      C1174   1.385       .  A
C1173      H1184   1.084       .  S
C1174      C1175   1.398       .  A
C1174      H1185   1.084       .  S
C1175      C1176   1.423       .  A
C1175      C1180   1.399       .  A
C1176      C1177   1.420   1_565  A
C1177      C1178   1.408       .  A
C1177      H1186   1.078       .  S
C1178      C1179   1.400       .  A
C1178      H1187   1.083       .  S
C1179      C1180   1.400   1_545  A
C1180      H1188   1.086       .  S
C1189      C1190   1.398       .  A
C1189      C1194   1.394       .  A
C1190      C1191   1.404       .  A
C1190      H1203   1.083       .  S
C1191      C1192   1.419       .  A
C1191      H1204   1.078   1_455  S
C1192      C1198   1.431   1_455  A
C1192      C1193   1.423       .  A
C1193      C1195   1.397       .  A
C1193      C1194   1.394       .  A
C1194      H1205   1.084       .  S
C1195      C1196   1.383       .  A
C1195      H1206   1.084       .  S
C1196      C1197   1.397       .  A
C1196      H1207   1.084       .  S
C1197      C1198   1.423   1_455  A
C1197      C1202   1.395   1_455  A
C1198      C1199   1.419       .  A
C1199      C1200   1.404       .  A
C1199      H1208   1.078       .  S
C1200      C1201   1.399       .  A
C1200      H1209   1.083       .  S
C1201      C1202   1.396       .  A
C1202      H1210   1.086   1_655  S
C1211      C1212   1.398       .  A
C1211      C1216   1.398       .  A
C1212      C1213   1.394       .  A
C1212      H1225   1.083       .  S
C1213      C1214   1.414       .  A
C1213      H1226   1.077       .  S
C1214      C1220   1.428       .  A
C1214      C1215   1.424       .  A
C1215      C1217   1.399       .  A
C1215      C1216   1.404       .  A
C1216      H1227   1.085       .  S
C1217      C1218   1.389       .  A
C1217      H1228   1.084       .  S
C1218      C1219   1.399       .  A
C1218      H1229   1.084       .  S
C1219      C1220   1.422       .  A
C1219      C1224   1.402       .  A
C1220      C1221   1.416       .  A
C1221      C1222   1.396       .  A
C1221      H1230   1.077       .  S
C1222      C1223   1.399       .  A
C1222      H1231   1.084       .  S
C1223      C1224   1.399       .  A
C1224      H1232   1.085       .  S
C1233      C1234   1.401       .  A
C1233      C1238   1.398       .  A
C1234      C1235   1.401       .  A
C1234      H1247   1.083       .  S
C1235      C1236   1.415       .  A
C1235      H1248   1.078       .  S
C1236      C1242   1.433       .  A
C1236      C1237   1.424       .  A
C1237      C1239   1.398       .  A
C1237      C1238   1.404       .  A
C1238      H1249   1.085       .  S
C1239      C1240   1.388       .  A
C1239      H1250   1.084       .  S
C1240      C1241   1.400       .  A
C1240      H1251   1.084       .  S
C1241      C1242   1.421       .  A
C1241      C1246   1.402       .  A
C1242      C1243   1.418       .  A
C1243      C1244   1.404       .  A
C1243      H1252   1.078       .  S
C1244      C1245   1.402       .  A
C1244      H1253   1.083       .  S
C1245      C1246   1.405       .  A
C1246      H1254   1.085   1_655  S
C1255      C1256   1.397       .  A
C1255      C1260   1.400       .  A
C1256      C1257   1.395       .  A
C1256      H1269   1.084       .  S
C1257      C1258   1.416       .  A
C1257      H1270   1.077       .  S
C1258      C1264   1.430       .  A
C1258      C1259   1.423       .  A
C1259      C1261   1.400       .  A
C1259      C1260   1.406       .  A
C1260      H1271   1.085       .  S
C1261      C1262   1.391       .  A
C1261      H1272   1.084       .  S
C1262      C1263   1.400       .  A
C1262      H1273   1.084       .  S
C1263      C1264   1.423       .  A
C1263      C1268   1.409       .  A
C1264      C1265   1.413       .  A
C1265      C1266   1.394       .  A
C1265      H1274   1.077       .  S
C1266      C1267   1.403       .  A
C1266      H1275   1.083   1_565  S
C1267      C1268   1.403       .  A
C1268      H1276   1.084       .  S
C1277      C1278   1.404       .  A
C1277      C1282   1.403   1_455  A
C1278      C1279   1.396   1_455  A
C1278      H1291   1.083       .  S
C1279      C1280   1.414       .  A
C1279      H1292   1.077       .  S
C1280      C1286   1.433       .  A
C1280      C1281   1.423       .  A
C1281      C1283   1.400       .  A
C1281      C1282   1.410       .  A
C1282      H1293   1.084       .  S
C1283      C1284   1.393       .  A
C1283      H1294   1.084       .  S
C1284      C1285   1.401       .  A
C1284      H1295   1.084       .  S
C1285      C1286   1.423       .  A
C1285      C1290   1.412       .  A
C1286      C1287   1.415       .  A
C1287      C1288   1.397       .  A
C1287      H1296   1.077       .  S
C1288      C1289   1.400       .  A
C1288      H1297   1.084       .  S
C1289      C1290   1.404       .  A
C1290      H1298   1.084       .  S
C1299      C1300   1.396       .  A
C1299      C1304   1.402       .  A
C1300      C1301   1.390       .  A
C1300      H1313   1.084       .  S
C1301      C1302   1.414       .  A
C1301      H1314   1.077       .  S
C1302      C1308   1.426       .  A
C1302      C1303   1.422       .  A
C1303      C1305   1.402       .  A
C1303      C1304   1.410       .  A
C1304      H1315   1.085       .  S
C1305      C1306   1.394       .  A
C1305      H1316   1.084       .  S
C1306      C1307   1.401       .  A
C1306      H1317   1.084       .  S
C1307      C1308   1.422       .  A
C1307      C1312   1.410       .  A
C1308      C1309   1.411       .  A
C1309      C1310   1.389       .  A
C1309      H1318   1.077       .  S
C1310      C1311   1.401       .  A
C1310      H1319   1.083   1_565  S
C1311      C1312   1.404       .  A
C1312      H1320   1.084       .  S
C1321      C1322   1.400       .  A
C1321      C1326   1.403       .  A
C1322      C1323   1.396       .  A
C1322      H1335   1.083       .  S
C1323      C1324   1.414       .  A
C1323      H1336   1.077       .  S
C1324      C1330   1.429       .  A
C1324      C1325   1.422       .  A
C1325      C1327   1.399       .  A
C1325      C1326   1.404       .  A
C1326      H1337   1.084       .  S
C1327      C1328   1.389       .  A
C1327      H1338   1.084       .  S
C1328      C1329   1.399       .  A
C1328      H1339   1.084       .  S
C1329      C1330   1.422       .  A
C1329      C1334   1.403       .  A
C1330      C1331   1.415       .  A
C1331      C1332   1.397       .  A
C1331      H1340   1.077       .  S
C1332      C1333   1.400       .  A
C1332      H1341   1.083       .  S
C1333      C1334   1.403       .  A
C1334      H1342   1.085       .  S
C1343      C1344   1.399       .  A
C1343      C1348   1.399       .  A
C1344      C1345   1.406       .  A
C1344      H1357   1.083       .  S
C1345      C1346   1.419       .  A
C1345      H1358   1.078   1_655  S
C1346      C1352   1.437   1_655  A
C1346      C1347   1.424       .  A
C1347      C1349   1.398       .  A
C1347      C1348   1.403       .  A
C1348      H1359   1.085       .  S
C1349      C1350   1.387       .  A
C1349      H1360   1.084       .  S
C1350      C1351   1.398       .  A
C1350      H1361   1.084       .  S
C1351      C1352   1.423   1_655  A
C1351      C1356   1.401   1_655  A
C1352      C1353   1.420       .  A
C1353      C1354   1.407       .  A
C1353      H1362   1.078       .  S
C1354      C1355   1.400       .  A
C1354      H1363   1.083       .  S
C1355      C1356   1.400       .  A
C1356      H1364   1.086   1_455  S
C1365      C1366   1.397       .  A
C1365      C1370   1.400       .  A
C1366      C1367   1.394       .  A
C1366      H1379   1.083       .  S
C1367      C1368   1.416       .  A
C1367      H1380   1.077       .  S
C1368      C1374   1.424       .  A
C1368      C1369   1.421       .  A
C1369      C1371   1.399       .  A
C1369      C1370   1.399       .  A
C1370      H1381   1.085       .  S
C1371      C1372   1.388       .  A
C1371      H1382   1.084       .  S
C1372      C1373   1.398       .  A
C1372      H1383   1.084       .  S
C1373      C1374   1.424       .  A
C1373      C1378   1.401       .  A
C1374      C1375   1.413       .  A
C1375      C1376   1.391       .  A
C1375      H1384   1.077       .  S
C1376      C1377   1.397       .  A
C1376      H1385   1.083       .  S
C1377      C1378   1.396       .  A
C1378      H1386   1.085       .  S
C1387      C1388   1.400       .  A
C1387      C1392   1.400       .  A
C1388      C1389   1.399       .  A
C1388      H1401   1.083       .  S
C1389      C1390   1.416       .  A
C1389      H1402   1.078       .  S
C1390      C1396   1.427       .  A
C1390      C1391   1.421       .  A
C1391      C1393   1.398       .  A
C1391      C1392   1.399       .  A
C1392      H1403   1.083       .  S
C1393      C1394   1.386       .  A
C1393      H1404   1.083       .  S
C1394      C1395   1.398       .  A
C1394      H1405   1.084       .  S
C1395      C1396   1.424       .  A
C1395      C1400   1.400       .  A
C1396      C1397   1.415       .  A
C1397      C1398   1.397       .  A
C1397      H1406   1.078       .  S
C1398      C1399   1.398       .  A
C1398      H1407   1.084       .  S
C1399      C1400   1.396       .  A
C1400      H1408   1.085       .  S
C1409      C1410   1.400       .  A
C1409      C1414   1.394       .  A
C1410      C1411   1.408       .  A
C1410      H1423   1.083       .  S
C1411      C1412   1.420       .  A
C1411      H1424   1.078   1_655  S
C1412      C1418   1.435       .  A
C1412      C1413   1.423       .  A
C1413      C1415   1.396       .  A
C1413      C1414   1.395       .  A
C1414      H1425   1.084       .  S
C1415      C1416   1.381       .  A
C1415      H1426   1.084       .  S
C1416      C1417   1.396       .  A
C1416      H1427   1.084       .  S
C1417      C1418   1.423       .  A
C1417      C1422   1.395   1_655  A
C1418      C1419   1.420   1_655  A
C1419      C1420   1.408       .  A
C1419      H1428   1.078       .  S
C1420      C1421   1.401       .  A
C1420      H1429   1.083       .  S
C1421      C1422   1.397       .  A
C1422      H1430   1.086   1_455  S
C1431      C1432   1.404       .  A
C1431      C1436   1.406   1_655  A
C1432      C1433   1.396   1_655  A
C1432      H1445   1.083       .  S
C1433      C1434   1.413       .  A
C1433      H1446   1.077       .  S
C1434      C1440   1.433       .  A
C1434      C1435   1.423       .  A
C1435      C1437   1.401       .  A
C1435      C1436   1.414       .  A
C1436      H1447   1.084       .  S
C1437      C1438   1.395       .  A
C1437      H1448   1.084       .  S
C1438      C1439   1.402       .  A
C1438      H1449   1.084       .  S
C1439      C1440   1.423       .  A
C1439      C1444   1.412       .  A
C1440      C1441   1.416       .  A
C1441      C1442   1.398       .  A
C1441      H1450   1.077       .  S
C1442      C1443   1.398       .  A
C1442      H1451   1.084       .  S
C1443      C1444   1.404       .  A
C1444      H1452   1.084       .  S
C1453      C1454   1.404       .  A
C1453      C1458   1.405   1_565  A
C1454      C1455   1.396   1_565  A
C1454      H1467   1.083       .  S
C1455      C1456   1.413       .  A
C1455      H1468   1.077       .  S
C1456      C1462   1.434       .  A
C1456      C1457   1.423       .  A
C1457      C1459   1.401       .  A
C1457      C1458   1.413       .  A
C1458      H1469   1.084       .  S
C1459      C1460   1.393       .  A
C1459      H1470   1.084       .  S
C1460      C1461   1.401       .  A
C1460      H1471   1.084       .  S
C1461      C1462   1.423       .  A
C1461      C1466   1.411       .  A
C1462      C1463   1.416       .  A
C1463      C1464   1.397       .  A
C1463      H1472   1.077       .  S
C1464      C1465   1.399       .  A
C1464      H1473   1.084       .  S
C1465      C1466   1.402       .  A
C1466      H1474   1.085       .  S
C1475      C1476   1.405       .  A
C1475      C1480   1.403   1_655  A
C1476      C1477   1.397   1_655  A
C1476      H1489   1.083       .  S
C1477      C1478   1.412       .  A
C1477      H1490   1.078       .  S
C1478      C1484   1.432       .  A
C1478      C1479   1.423       .  A
C1479      C1481   1.399       .  A
C1479      C1480   1.409       .  A
C1480      H1491   1.084       .  S
C1481      C1482   1.391       .  A
C1481      H1492   1.084       .  S
C1482      C1483   1.400       .  A
C1482      H1493   1.084       .  S
C1483      C1484   1.422       .  A
C1483      C1488   1.406       .  A
C1484      C1485   1.418       .  A
C1485      C1486   1.401       .  A
C1485      H1494   1.078       .  S
C1486      C1487   1.400       .  A
C1486      H1495   1.084       .  S
C1487      C1488   1.400       .  A
C1488      H1496   1.085       .  S
C1497      C1498   1.404       .  A
C1497      C1502   1.406   1_565  A
C1498      C1499   1.394   1_565  A
C1498      H1511   1.083       .  S
C1499      C1500   1.412       .  A
C1499      H1512   1.077       .  S
C1500      C1506   1.433       .  A
C1500      C1501   1.423       .  A
C1501      C1503   1.401       .  A
C1501      C1502   1.414       .  A
C1502      H1513   1.084       .  S
C1503      C1504   1.394       .  A
C1503      H1514   1.084       .  S
C1504      C1505   1.401       .  A
C1504      H1515   1.084       .  S
C1505      C1506   1.423       .  A
C1505      C1510   1.411       .  A
C1506      C1507   1.416       .  A
C1507      C1508   1.396       .  A
C1507      H1516   1.077       .  S
C1508      C1509   1.398       .  A
C1508      H1517   1.084       .  S
C1509      C1510   1.403       .  A
C1510      H1518   1.085       .  S
C1519      C1520   1.400       .  A
C1519      C1524   1.403       .  A
C1520      C1521   1.399       .  A
C1520      H1533   1.083       .  S
C1521      C1522   1.416       .  A
C1521      H1534   1.077       .  S
C1522      C1528   1.430       .  A
C1522      C1523   1.422       .  A
C1523      C1525   1.399       .  A
C1523      C1524   1.402       .  A
C1524      H1535   1.085       .  S
C1525      C1526   1.387       .  A
C1525      H1536   1.084       .  S
C1526      C1527   1.399       .  A
C1526      H1537   1.084       .  S
C1527      C1528   1.422       .  A
C1527      C1532   1.402       .  A
C1528      C1529   1.415       .  A
C1529      C1530   1.398       .  A
C1529      H1538   1.077       .  S
C1530      C1531   1.401       .  A
C1530      H1539   1.083       .  S
C1531      C1532   1.402       .  A
C1532      H1540   1.085       .  S
C1541      C1542   1.401       .  A
C1541      C1546   1.400       .  A
C1542      C1543   1.408       .  A
C1542      H1555   1.083       .  S
C1543      C1544   1.420   1_655  A
C1543      H1556   1.078       .  S
C1544      C1550   1.437       .  A
C1544      C1545   1.423       .  A
C1545      C1547   1.398       .  A
C1545      C1546   1.400   1_455  A
C1546      H1557   1.086   1_655  S
C1547      C1548   1.385       .  A
C1547      H1558   1.084       .  S
C1548      C1549   1.398       .  A
C1548      H1559   1.084       .  S
C1549      C1550   1.422       .  A
C1549      C1554   1.399       .  A
C1550      C1551   1.420       .  A
C1551      C1552   1.409       .  A
C1551      H1560   1.078   1_455  S
C1552      C1553   1.400       .  A
C1552      H1561   1.083       .  S
C1553      C1554   1.399       .  A
C1554      H1562   1.084       .  S
C1563      C1564   1.399       .  A
C1563      C1568   1.400       .  A
C1564      C1565   1.396       .  A
C1564      H1577   1.084       .  S
C1565      C1566   1.415       .  A
C1565      H1578   1.077       .  S
C1566      C1572   1.427       .  A
C1566      C1567   1.422       .  A
C1567      C1569   1.400       .  A
C1567      C1568   1.403       .  A
C1568      H1579   1.085       .  S
C1569      C1570   1.390       .  A
C1569      H1580   1.084       .  S
C1570      C1571   1.399       .  A
C1570      H1581   1.084       .  S
C1571      C1572   1.422       .  A
C1571      C1576   1.404       .  A
C1572      C1573   1.414       .  A
C1573      C1574   1.395       .  A
C1573      H1582   1.078       .  S
C1574      C1575   1.400       .  A
C1574      H1583   1.083       .  S
C1575      C1576   1.401       .  A
C1576      H1584   1.085       .  S
C1585      C1586   1.402       .  A
C1585      C1590   1.401       .  A
C1586      C1587   1.405       .  A
C1586      H1599   1.083       .  S
C1587      C1588   1.418       .  A
C1587      H1600   1.078       .  S
C1588      C1594   1.437       .  A
C1588      C1589   1.423       .  A
C1589      C1591   1.398       .  A
C1589      C1590   1.403       .  A
C1590      H1601   1.085       .  S
C1591      C1592   1.387       .  A
C1591      H1602   1.084       .  S
C1592      C1593   1.398       .  A
C1592      H1603   1.084       .  S
C1593      C1594   1.422       .  A
C1593      C1598   1.402       .  A
C1594      C1595   1.419       .  A
C1595      C1596   1.407       .  A
C1595      H1604   1.078       .  S
C1596      C1597   1.402       .  A
C1596      H1605   1.083       .  S
C1597      C1598   1.401       .  A
C1598      H1606   1.085       .  S
C1607      C1608   1.401       .  A
C1607      C1612   1.405       .  A
C1608      C1609   1.396       .  A
C1608      H1621   1.084       .  S
C1609      C1610   1.414       .  A
C1609      H1622   1.077       .  S
C1610      C1616   1.436       .  A
C1610      C1611   1.424       .  A
C1611      C1613   1.402       .  A
C1611      C1612   1.417       .  A
C1612      H1623   1.084       .  S
C1613      C1614   1.396       .  A
C1613      H1624   1.084       .  S
C1614      C1615   1.402       .  A
C1614      H1625   1.084       .  S
C1615      C1616   1.424       .  A
C1615      C1620   1.417       .  A
C1616      C1617   1.415       .  A
C1617      C1618   1.397       .  A
C1617      H1626   1.077       .  S
C1618      C1619   1.401       .  A
C1618      H1627   1.084       .  S
C1619      C1620   1.405       .  A
C1620      H1628   1.084       .  S
C1629      C1630   1.403       .  A
C1629      C1634   1.402       .  A
C1630      C1631   1.396       .  A
C1630      H1643   1.083       .  S
C1631      C1632   1.415       .  A
C1631      H1644   1.077       .  S
C1632      C1638   1.430       .  A
C1632      C1633   1.422       .  A
C1633      C1635   1.399       .  A
C1633      C1634   1.406       .  A
C1634      H1645   1.084       .  S
C1635      C1636   1.390       .  A
C1635      H1646   1.084       .  S
C1636      C1637   1.399       .  A
C1636      H1647   1.084       .  S
C1637      C1638   1.423       .  A
C1637      C1642   1.407       .  A
C1638      C1639   1.413       .  A
C1639      C1640   1.394       .  A
C1639      H1648   1.076       .  S
C1640      C1641   1.403       .  A
C1640      H1649   1.083       .  S
C1641      C1642   1.402       .  A
C1642      H1650   1.084       .  S
C1651      C1652   1.404       .  A
C1651      C1656   1.402       .  A
C1652      C1653   1.407       .  A
C1652      H1665   1.083       .  S
C1653      C1654   1.418       .  A
C1653      H1666   1.078       .  S
C1654      C1660   1.439       .  A
C1654      C1655   1.423       .  A
C1655      C1657   1.398       .  A
C1655      C1656   1.405       .  A
C1656      H1667   1.085       .  S
C1657      C1658   1.387       .  A
C1657      H1668   1.084       .  S
C1658      C1659   1.398       .  A
C1658      H1669   1.084       .  S
C1659      C1660   1.422       .  A
C1659      C1664   1.403       .  A
C1660      C1661   1.419       .  A
C1661      C1662   1.408       .  A
C1661      H1670   1.078       .  S
C1662      C1663   1.403       .  A
C1662      H1671   1.083       .  S
C1663      C1664   1.402       .  A
C1664      H1672   1.085       .  S
C1673      C1674   1.402       .  A
C1673      C1678   1.404       .  A
C1674      C1675   1.404       .  A
C1674      H1687   1.083       .  S
C1675      C1676   1.418       .  A
C1675      H1688   1.078       .  S
C1676      C1682   1.434       .  A
C1676      C1677   1.421       .  A
C1677      C1679   1.399       .  A
C1677      C1678   1.402       .  A
C1678      H1689   1.084       .  S
C1679      C1680   1.387       .  A
C1679      H1690   1.084       .  S
C1680      C1681   1.398       .  A
C1680      H1691   1.084       .  S
C1681      C1682   1.424       .  A
C1681      C1686   1.404       .  A
C1682      C1683   1.416       .  A
C1683      C1684   1.401       .  A
C1683      H1692   1.078       .  S
C1684      C1685   1.401       .  A
C1684      H1693   1.083       .  S
C1685      C1686   1.398       .  A
C1686      H1694   1.085       .  S
C1695      C1696   1.402       .  A
C1695      C1700   1.403       .  A
C1696      C1697   1.405       .  A
C1696      H1709   1.083       .  S
C1697      C1698   1.418       .  A
C1697      H1710   1.078       .  S
C1698      C1704   1.437       .  A
C1698      C1699   1.422       .  A
C1699      C1701   1.399       .  A
C1699      C1700   1.405       .  A
C1700      H1711   1.085       .  S
C1701      C1702   1.388       .  A
C1701      H1712   1.084       .  S
C1702      C1703   1.399       .  A
C1702      H1713   1.084       .  S
C1703      C1704   1.423       .  A
C1703      C1708   1.405       .  A
C1704      C1705   1.418       .  A
C1705      C1706   1.404       .  A
C1705      H1714   1.078       .  S
C1706      C1707   1.402       .  A
C1706      H1715   1.083       .  S
C1707      C1708   1.404       .  A
C1708      H1716   1.085       .  S
C1717      C1718   1.404       .  A
C1717      C1722   1.405       .  A
C1718      C1719   1.397       .  A
C1718      H1731   1.083       .  S
C1719      C1720   1.413       .  A
C1719      H1732   1.077       .  S
C1720      C1726   1.435       .  A
C1720      C1721   1.424       .  A
C1721      C1723   1.401       .  A
C1721      C1722   1.413       .  A
C1722      H1733   1.084       .  S
C1723      C1724   1.393       .  A
C1723      H1734   1.084       .  S
C1724      C1725   1.401       .  A
C1724      H1735   1.084       .  S
C1725      C1726   1.423       .  A
C1725      C1730   1.410       .  A
C1726      C1727   1.417       .  A
C1727      C1728   1.400       .  A
C1727      H1736   1.077       .  S
C1728      C1729   1.398       .  A
C1728      H1737   1.084       .  S
C1729      C1730   1.402       .  A
C1730      H1738   1.085       .  S
C1739      C1740   1.400       .  A
C1739      C1744   1.403       .  A
C1740      C1741   1.393       .  A
C1740      H1753   1.083       .  S
C1741      C1742   1.413       .  A
C1741      H1754   1.077       .  S
C1742      C1748   1.429       .  A
C1742      C1743   1.423       .  A
C1743      C1745   1.400       .  A
C1743      C1744   1.408       .  A
C1744      H1755   1.084       .  S
C1745      C1746   1.392       .  A
C1745      H1756   1.084       .  S
C1746      C1747   1.400       .  A
C1746      H1757   1.084       .  S
C1747      C1748   1.422       .  A
C1747      C1752   1.407       .  A
C1748      C1749   1.414       .  A
C1749      C1750   1.393       .  A
C1749      H1758   1.077       .  S
C1750      C1751   1.400       .  A
C1750      H1759   1.083       .  S
C1751      C1752   1.403       .  A
C1752      H1760   1.084       .  S
C1761      C1762   1.402       .  A
C1761      C1766   1.401       .  A
C1762      C1763   1.398       .  A
C1762      H1775   1.084       .  S
C1763      C1764   1.415       .  A
C1763      H1776   1.077       .  S
C1764      C1770   1.435       .  A
C1764      C1765   1.424       .  A
C1765      C1767   1.400       .  A
C1765      C1766   1.412       .  A
C1766      H1777   1.084       .  S
C1767      C1768   1.393       .  A
C1767      H1778   1.084       .  S
C1768      C1769   1.400       .  A
C1768      H1779   1.084       .  S
C1769      C1770   1.424       .  A
C1769      C1774   1.412       .  A
C1770      C1771   1.415       .  A
C1771      C1772   1.398       .  A
C1771      H1780   1.077       .  S
C1772      C1773   1.401       .  A
C1772      H1781   1.084       .  S
C1773      C1774   1.402       .  A
C1774      H1782   1.084       .  S
C1783      C1784   1.405       .  A
C1783      C1788   1.406       .  A
C1784      C1785   1.395       .  A
C1784      H1797   1.083       .  S
C1785      C1786   1.411       .  A
C1785      H1798   1.078       .  S
C1786      C1792   1.431       .  A
C1786      C1787   1.423       .  A
C1787      C1789   1.401       .  A
C1787      C1788   1.415       .  A
C1788      H1799   1.084       .  S
C1789      C1790   1.395       .  A
C1789      H1800   1.084       .  S
C1790      C1791   1.402       .  A
C1790      H1801   1.084       .  S
C1791      C1792   1.421       .  A
C1791      C1796   1.410       .  A
C1792      C1793   1.416       .  A
C1793      C1794   1.398       .  A
C1793      H1802   1.078       .  S
C1794      C1795   1.400       .  A
C1794      H1803   1.084       .  S
C1795      C1796   1.403       .  A
C1796      H1804   1.084       .  S
C1805      C1806   1.402       .  A
C1805      C1810   1.406       .  A
C1806      C1807   1.391       .  A
C1806      H1819   1.084       .  S
C1807      C1808   1.413       .  A
C1807      H1820   1.076       .  S
C1808      C1814   1.431       .  A
C1808      C1809   1.423       .  A
C1809      C1811   1.402       .  A
C1809      C1810   1.415       .  A
C1810      H1821   1.084       .  S
C1811      C1812   1.397       .  A
C1811      H1822   1.084       .  S
C1812      C1813   1.402       .  A
C1812      H1823   1.084       .  S
C1813      C1814   1.423       .  A
C1813      C1818   1.417       .  A
C1814      C1815   1.411       .  A
C1815      C1816   1.390       .  A
C1815      H1824   1.077       .  S
C1816      C1817   1.403       .  A
C1816      H1825   1.084       .  S
C1817      C1818   1.406       .  A
C1818      H1826   1.084       .  S
C1827      C1828   1.401       .  A
C1827      C1832   1.400       .  A
C1828      C1829   1.402       .  A
C1828      H1841   1.083       .  S
C1829      C1830   1.416       .  A
C1829      H1842   1.078       .  S
C1830      C1836   1.434       .  A
C1830      C1831   1.423       .  A
C1831      C1833   1.398       .  A
C1831      C1832   1.405       .  A
C1832      H1843   1.085       .  S
C1833      C1834   1.389       .  A
C1833      H1844   1.084       .  S
C1834      C1835   1.400       .  A
C1834      H1845   1.084       .  S
C1835      C1836   1.422       .  A
C1835      C1840   1.405       .  A
C1836      C1837   1.417       .  A
C1837      C1838   1.403       .  A
C1837      H1846   1.078       .  S
C1838      C1839   1.402       .  A
C1838      H1847   1.083       .  S
C1839      C1840   1.405       .  A
C1840      H1848   1.084       .  S
C1849      C1850   1.403       .  A
C1849      C1854   1.407       .  A
C1850      C1851   1.394       .  A
C1850      H1863   1.083       .  S
C1851      C1852   1.413       .  A
C1851      H1864   1.077       .  S
C1852      C1858   1.433       .  A
C1852      C1853   1.423       .  A
C1853      C1855   1.402       .  A
C1853      C1854   1.414       .  A
C1854      H1865   1.084       .  S
C1855      C1856   1.395       .  A
C1855      H1866   1.084       .  S
C1856      C1857   1.402       .  A
C1856      H1867   1.084       .  S
C1857      C1858   1.423       .  A
C1857      C1862   1.414       .  A
C1858      C1859   1.413       .  A
C1859      C1860   1.394       .  A
C1859      H1868   1.077       .  S
C1860      C1861   1.403       .  A
C1860      H1869   1.083       .  S
C1861      C1862   1.407       .  A
C1862      H1870   1.084       .  S
C1871      C1872   1.404       .  A
C1871      C1876   1.402       .  A
C1872      C1873   1.408       .  A
C1872      H1885   1.083       .  S
C1873      C1874   1.419       .  A
C1873      H1886   1.078       .  S
C1874      C1880   1.441       .  A
C1874      C1875   1.423       .  A
C1875      C1877   1.398       .  A
C1875      C1876   1.406       .  A
C1876      H1887   1.085       .  S
C1877      C1878   1.388       .  A
C1877      H1888   1.084       .  S
C1878      C1879   1.399       .  A
C1878      H1889   1.084       .  S
C1879      C1880   1.423       .  A
C1879      C1884   1.405       .  A
C1880      C1881   1.419       .  A
C1881      C1882   1.409       .  A
C1881      H1890   1.078       .  S
C1882      C1883   1.404       .  A
C1882      H1891   1.083       .  S
C1883      C1884   1.403       .  A
C1884      H1892   1.085       .  S
C1893      C1894   1.403       .  A
C1893      C1898   1.404       .  A
C1894      C1895   1.403       .  A
C1894      H1907   1.083       .  S
C1895      C1896   1.416       .  A
C1895      H1908   1.078       .  S
C1896      C1902   1.435       .  A
C1896      C1897   1.422       .  A
C1897      C1899   1.400       .  A
C1897      C1898   1.405       .  A
C1898      H1909   1.084       .  S
C1899      C1900   1.389       .  A
C1899      H1910   1.084       .  S
C1900      C1901   1.398       .  A
C1900      H1911   1.084       .  S
C1901      C1902   1.422       .  A
C1901      C1906   1.404       .  A
C1902      C1903   1.417       .  A
C1903      C1904   1.403       .  A
C1903      H1912   1.078       .  S
C1904      C1905   1.402       .  A
C1904      H1913   1.083       .  S
C1905      C1906   1.400       .  A
C1906      H1914   1.085       .  S
C1915      C1916   1.399       .  A
C1915      C1920   1.404       .  A
C1916      C1917   1.396       .  A
C1916      H1929   1.084       .  S
C1917      C1918   1.414       .  A
C1917      H1930   1.077       .  S
C1918      C1924   1.432       .  A
C1918      C1919   1.424       .  A
C1919      C1921   1.401       .  A
C1919      C1920   1.413       .  A
C1920      H1931   1.084       .  S
C1921      C1922   1.394       .  A
C1921      H1932   1.084       .  S
C1922      C1923   1.401       .  A
C1922      H1933   1.084       .  S
C1923      C1924   1.421       .  A
C1923      C1928   1.411       .  A
C1924      C1925   1.414       .  A
C1925      C1926   1.397       .  A
C1925      H1934   1.077       .  S
C1926      C1927   1.403       .  A
C1926      H1935   1.083       .  S
C1927      C1928   1.406       .  A
C1928      H1936   1.084       .  S
C1937      C1938   1.401       .  A
C1937      C1942   1.405       .  A
C1938      C1939   1.395       .  A
C1938      H1951   1.084       .  S
C1939      C1940   1.414       .  A
C1939      H1952   1.077       .  S
C1940      C1946   1.433       .  A
C1940      C1941   1.423       .  A
C1941      C1943   1.402       .  A
C1941      C1942   1.415       .  A
C1942      H1953   1.084       .  S
C1943      C1944   1.396       .  A
C1943      H1954   1.084       .  S
C1944      C1945   1.402       .  A
C1944      H1955   1.084       .  S
C1945      C1946   1.423       .  A
C1945      C1950   1.415       .  A
C1946      C1947   1.414       .  A
C1947      C1948   1.394       .  A
C1947      H1956   1.077       .  S
C1948      C1949   1.399       .  A
C1948      H1957   1.084       .  S
C1949      C1950   1.406       .  A
C1950      H1958   1.084       .  S
C1959      C1960   1.403       .  A
C1959      C1964   1.405       .  A
C1960      C1961   1.402       .  A
C1960      H1973   1.083       .  S
C1961      C1962   1.417       .  A
C1961      H1974   1.078       .  S
C1962      C1968   1.433       .  A
C1962      C1963   1.421       .  A
C1963      C1965   1.400       .  A
C1963      C1964   1.405       .  A
C1964      H1975   1.084       .  S
C1965      C1966   1.390       .  A
C1965      H1976   1.084       .  S
C1966      C1967   1.399       .  A
C1966      H1977   1.084       .  S
C1967      C1968   1.424       .  A
C1967      C1972   1.408       .  A
C1968      C1969   1.415       .  A
C1969      C1970   1.400       .  A
C1969      H1978   1.078       .  S
C1970      C1971   1.401       .  A
C1970      H1979   1.083       .  S
C1971      C1972   1.400       .  A
C1972      H1980   1.085       .  S
C1981      C1982   1.399       .  A
C1981      C1986   1.402       .  A
C1982      C1983   1.394       .  A
C1982      H1995   1.084       .  S
C1983      C1984   1.415       .  A
C1983      H1996   1.077       .  S
C1984      C1990   1.431       .  A
C1984      C1985   1.423       .  A
C1985      C1987   1.401       .  A
C1985      C1986   1.411       .  A
C1986      H1997   1.084       .  S
C1987      C1988   1.394       .  A
C1987      H1998   1.084       .  S
C1988      C1989   1.401       .  A
C1988      H1999   1.084       .  S
C1989      C1990   1.423       .  A
C1989      C1994   1.412       .  A
C1990      C1991   1.413       .  A
C1991      C1992   1.393       .  A
C1991      H2000   1.077       .  S
C1992      C1993   1.403       .  A
C1992      H2001   1.083       .  S
C1993      C1994   1.405       .  A
C1994      H2002   1.084       .  S
C2003      C2004   1.401       .  A
C2003      C2008   1.401       .  A
C2004      C2005   1.396       .  A
C2004      H2017   1.083       .  S
C2005      C2006   1.415       .  A
C2005      H2018   1.077       .  S
C2006      C2012   1.429       .  A
C2006      C2007   1.422       .  A
C2007      C2009   1.399       .  A
C2007      C2008   1.401       .  A
C2008      H2019   1.085       .  S
C2009      C2010   1.387       .  A
C2009      H2020   1.084       .  S
C2010      C2011   1.399       .  A
C2010      H2021   1.084       .  S
C2011      C2012   1.422       .  A
C2011      C2016   1.402       .  A
C2012      C2013   1.415       .  A
C2013      C2014   1.396       .  A
C2013      H2022   1.077       .  S
C2014      C2015   1.401       .  A
C2014      H2023   1.083       .  S
C2015      C2016   1.402       .  A
C2016      H2024   1.085       .  S
C2025      C2026   1.399       .  A
C2025      C2030   1.404       .  A
C2026      C2027   1.394       .  A
C2026      H2039   1.084       .  S
C2027      C2028   1.414       .  A
C2027      H2040   1.077       .  S
C2028      C2034   1.432       .  A
C2028      C2029   1.423       .  A
C2029      C2031   1.402       .  A
C2029      C2030   1.414       .  A
C2030      H2041   1.084       .  S
C2031      C2032   1.396       .  A
C2031      H2042   1.084       .  S
C2032      C2033   1.402       .  A
C2032      H2043   1.084       .  S
C2033      C2034   1.424       .  A
C2033      C2038   1.415       .  A
C2034      C2035   1.413       .  A
C2035      C2036   1.392       .  A
C2035      H2044   1.077       .  S
C2036      C2037   1.399       .  A
C2036      H2045   1.084       .  S
C2037      C2038   1.404       .  A
C2038      H2046   1.084       .  S
C2047      C2048   1.400       .  A
C2047      C2052   1.398       .  A
C2048      C2049   1.408       .  A
C2048      H2061   1.083       .  S
C2049      C2050   1.420       .  A
C2049      H2062   1.078       .  S
C2050      C2056   1.437       .  A
C2050      C2051   1.423       .  A
C2051      C2053   1.398       .  A
C2051      C2052   1.400       .  A
C2052      H2063   1.086       .  S
C2053      C2054   1.385       .  A
C2053      H2064   1.084       .  S
C2054      C2055   1.397       .  A
C2054      H2065   1.084       .  S
C2055      C2056   1.424       .  A
C2055      C2060   1.401       .  A
C2056      C2057   1.419       .  A
C2057      C2058   1.407       .  A
C2057      H2066   1.078       .  S
C2058      C2059   1.400       .  A
C2058      H2067   1.083       .  S
C2059      C2060   1.396       .  A
C2060      H2068   1.085       .  S
C2069      C2070   1.400       .  A
C2069      C2074   1.403       .  A
C2070      C2071   1.398       .  A
C2070      H2083   1.083       .  S
C2071      C2072   1.415       .  A
C2071      H2084   1.078       .  S
C2072      C2078   1.429       .  A
C2072      C2073   1.421       .  A
C2073      C2075   1.400       .  A
C2073      C2074   1.405       .  A
C2074      H2085   1.085       .  S
C2075      C2076   1.391       .  A
C2075      H2086   1.084       .  S
C2076      C2077   1.400       .  A
C2076      H2087   1.084       .  S
C2077      C2078   1.424       .  A
C2077      C2082   1.406       .  A
C2078      C2079   1.415       .  A
C2079      C2080   1.396       .  A
C2079      H2088   1.078       .  S
C2080      C2081   1.399       .  A
C2080      H2089   1.084       .  S
C2081      C2082   1.400       .  A
C2082      H2090   1.085       .  S
C2091      C2092   1.403       .  A
C2091      C2096   1.401       .  A
C2092      C2093   1.408       .  A
C2092      H2105   1.083       .  S
C2093      C2094   1.419       .  A
C2093      H2106   1.078       .  S
C2094      C2100   1.438       .  A
C2094      C2095   1.422       .  A
C2095      C2097   1.398       .  A
C2095      C2096   1.401       .  A
C2096      H2107   1.085       .  S
C2097      C2098   1.386       .  A
C2097      H2108   1.084       .  S
C2098      C2099   1.398       .  A
C2098      H2109   1.084       .  S
C2099      C2100   1.423       .  A
C2099      C2104   1.403       .  A
C2100      C2101   1.419       .  A
C2101      C2102   1.408       .  A
C2101      H2110   1.078       .  S
C2102      C2103   1.403       .  A
C2102      H2111   1.083       .  S
C2103      C2104   1.402       .  A
C2104      H2112   1.085       .  S
C2113      C2114   1.402       .  A
C2113      C2118   1.403       .  A
C2114      C2115   1.397       .  A
C2114      H2127   1.083       .  S
C2115      C2116   1.415       .  A
C2115      H2128   1.077       .  S
C2116      C2122   1.431   1_554  A
C2116      C2117   1.421       .  A
C2117      C2119   1.400       .  A
C2117      C2118   1.406       .  A
C2118      H2129   1.084       .  S
C2119      C2120   1.391   1_554  A
C2119      H2130   1.084       .  S
C2120      C2121   1.400       .  A
C2120      H2131   1.084       .  S
C2121      C2122   1.424       .  A
C2121      C2126   1.410       .  A
C2122      C2123   1.412       .  A
C2123      C2124   1.394       .  A
C2123      H2132   1.077       .  S
C2124      C2125   1.404       .  A
C2124      H2133   1.083       .  S
C2125      C2126   1.403       .  A
C2126      H2134   1.084       .  S
C2135      C2136   1.399       .  A
C2135      C2140   1.398       .  A
C2136      C2137   1.406       .  A
C2136      H2149   1.083       .  S
C2137      C2138   1.419       .  A
C2137      H2150   1.078       .  S
C2138      C2144   1.434       .  A
C2138      C2139   1.423       .  A
C2139      C2141   1.398       .  A
C2139      C2140   1.399       .  A
C2140      H2151   1.084       .  S
C2141      C2142   1.385       .  A
C2141      H2152   1.084       .  S
C2142      C2143   1.398       .  A
C2142      H2153   1.084       .  S
C2143      C2144   1.423       .  A
C2143      C2148   1.398       .  A
C2144      C2145   1.419       .  A
C2145      C2146   1.406       .  A
C2145      H2154   1.078       .  S
C2146      C2147   1.399       .  A
C2146      H2155   1.083       .  S
C2147      C2148   1.398       .  A
C2148      H2156   1.086       .  S
C2157      C2158   1.397       .  A
C2157      C2162   1.401       .  A
C2158      C2159   1.396       .  A
C2158      H2171   1.083       .  S
C2159      C2160   1.416       .  A
C2159      H2172   1.077       .  S
C2160      C2166   1.426       .  A
C2160      C2161   1.420       .  A
C2161      C2163   1.400       .  A
C2161      C2162   1.400       .  A
C2162      H2173   1.084       .  S
C2163      C2164   1.389       .  A
C2163      H2174   1.084       .  S
C2164      C2165   1.399       .  A
C2164      H2175   1.084       .  S
C2165      C2166   1.424       .  A
C2165      C2170   1.404       .  A
C2166      C2167   1.413       .  A
C2167      C2168   1.392       .  A
C2167      H2176   1.077       .  S
C2168      C2169   1.398       .  A
C2168      H2177   1.084       .  S
C2169      C2170   1.398       .  A
C2170      H2178   1.085       .  S
C2179      C2180   1.402       .  A
C2179      C2184   1.407       .  A
C2180      C2181   1.395       .  A
C2180      H2193   1.084       .  S
C2181      C2182   1.414       .  A
C2181      H2194   1.077       .  S
C2182      C2188   1.435       .  A
C2182      C2183   1.424       .  A
C2183      C2185   1.402       .  A
C2183      C2184   1.417       .  A
C2184      H2195   1.084       .  S
C2185      C2186   1.397       .  A
C2185      H2196   1.084       .  S
C2186      C2187   1.402       .  A
C2186      H2197   1.084       .  S
C2187      C2188   1.423       .  A
C2187      C2192   1.416       .  A
C2188      C2189   1.414       .  A
C2189      C2190   1.396       .  A
C2189      H2198   1.077       .  S
C2190      C2191   1.402       .  A
C2190      H2199   1.084       .  S
C2191      C2192   1.406       .  A
C2192      H2200   1.084       .  S
C2201      C2202   1.397       .  A
C2201      C2206   1.398       .  A
C2202      C2203   1.395       .  A
C2202      H2215   1.083       .  S
C2203      C2204   1.416       .  A
C2203      H2216   1.078       .  S
C2204      C2210   1.425       .  A
C2204      C2205   1.421       .  A
C2205      C2207   1.398       .  A
C2205      C2206   1.398       .  A
C2206      H2217   1.084       .  S
C2207      C2208   1.387       .  A
C2207      H2218   1.084       .  S
C2208      C2209   1.398       .  A
C2208      H2219   1.084       .  S
C2209      C2210   1.424       .  A
C2209      C2214   1.401       .  A
C2210      C2211   1.413       .  A
C2211      C2212   1.392       .  A
C2211      H2220   1.077       .  S
C2212      C2213   1.398       .  A
C2212      H2221   1.084       .  S
C2213      C2214   1.397       .  A
C2214      H2222   1.085       .  S
C2223      C2224   1.399       .  A
C2223      C2228   1.398       .  A
C2224      C2225   1.405       .  A
C2224      H2237   1.083       .  S
C2225      C2226   1.419       .  A
C2225      H2238   1.078       .  S
C2226      C2232   1.436       .  A
C2226      C2227   1.424       .  A
C2227      C2229   1.398       .  A
C2227      C2228   1.403       .  A
C2228      H2239   1.084       .  S
C2229      C2230   1.387       .  A
C2229      H2240   1.084       .  S
C2230      C2231   1.399       .  A
C2230      H2241   1.084       .  S
C2231      C2232   1.423       .  A
C2231      C2236   1.401       .  A
C2232      C2233   1.420       .  A
C2233      C2234   1.406       .  A
C2233      H2242   1.078       .  S
C2234      C2235   1.399       .  A
C2234      H2243   1.083       .  S
C2235      C2236   1.399       .  A
C2236      H2244   1.086       .  S
C2245      C2246   1.399       .  A
C2245      C2250   1.402       .  A
C2246      C2247   1.400       .  A
C2246      H2259   1.084       .  S
C2247      C2248   1.417       .  A
C2247      H2260   1.078       .  S
C2248      C2254   1.434       .  A
C2248      C2249   1.423       .  A
C2249      C2251   1.401       .  A
C2249      C2250   1.410       .  A
C2250      H2261   1.085       .  S
C2251      C2252   1.393       .  A
C2251      H2262   1.084       .  S
C2252      C2253   1.400       .  A
C2252      H2263   1.084       .  S
C2253      C2254   1.423       .  A
C2253      C2258   1.412       .  A
C2254      C2255   1.413       .  A
C2255      C2256   1.398       .  A
C2255      H2264   1.078       .  S
C2256      C2257   1.404       .  A
C2256      H2265   1.083       .  S
C2257      C2258   1.405       .  A
C2258      H2266   1.084       .  S
C2267      C2268   1.399       .  A
C2267      C2272   1.407       .  A
C2268      C2269   1.395       .  A
C2268      H2281   1.084       .  S
C2269      C2270   1.414       .  A
C2269      H2282   1.076       .  S
C2270      C2276   1.434       .  A
C2270      C2271   1.423       .  A
C2271      C2273   1.403       .  A
C2271      C2272   1.416       .  A
C2272      H2283   1.084       .  S
C2273      C2274   1.397       .  A
C2273      H2284   1.084       .  S
C2274      C2275   1.403       .  A
C2274      H2285   1.084       .  S
C2275      C2276   1.423       .  A
C2275      C2280   1.416       .  A
C2276      C2277   1.414       .  A
C2277      C2278   1.395       .  A
C2277      H2286   1.076       .  S
C2278      C2279   1.400       .  A
C2278      H2287   1.084       .  S
C2279      C2280   1.407       .  A
C2280      H2288   1.084       .  S
C2289      C2290   1.402       .  A
C2289      C2294   1.406       .  A
C2290      C2291   1.394       .  A
C2290      H2303   1.083       .  S
C2291      C2292   1.412       .  A
C2291      H2304   1.077       .  S
C2292      C2298   1.430       .  A
C2292      C2293   1.422       .  A
C2293      C2295   1.401       .  A
C2293      C2294   1.411       .  A
C2294      H2305   1.084       .  S
C2295      C2296   1.394       .  A
C2295      H2306   1.084       .  S
C2296      C2297   1.402       .  A
C2296      H2307   1.084       .  S
C2297      C2298   1.422       .  A
C2297      C2302   1.409       .  A
C2298      C2299   1.416       .  A
C2299      C2300   1.397       .  A
C2299      H2308   1.077       .  S
C2300      C2301   1.397       .  A
C2300      H2309   1.084       .  S
C2301      C2302   1.403       .  A
C2302      H2310   1.085       .  S
C2311      C2312   1.401       .  A
C2311      C2316   1.402       .  A
C2312      C2313   1.397       .  A
C2312      H2325   1.083       .  S
C2313      C2314   1.415       .  A
C2313      H2326   1.077       .  S
C2314      C2320   1.430   1_556  A
C2314      C2315   1.422       .  A
C2315      C2317   1.399       .  A
C2315      C2316   1.402       .  A
C2316      H2327   1.084       .  S
C2317      C2318   1.387   1_556  A
C2317      H2328   1.084       .  S
C2318      C2319   1.399       .  A
C2318      H2329   1.084       .  S
C2319      C2320   1.422       .  A
C2319      C2324   1.401       .  A
C2320      C2321   1.416       .  A
C2321      C2322   1.398       .  A
C2321      H2330   1.077       .  S
C2322      C2323   1.400       .  A
C2322      H2331   1.083       .  S
C2323      C2324   1.402       .  A
C2324      H2332   1.084       .  S
C2333      C2334   1.397       .  A
C2333      C2338   1.401       .  A
C2334      C2335   1.393       .  A
C2334      H2347   1.083       .  S
C2335      C2336   1.415       .  A
C2335      H2348   1.077       .  S
C2336      C2342   1.426       .  A
C2336      C2337   1.422       .  A
C2337      C2339   1.400       .  A
C2337      C2338   1.403       .  A
C2338      H2349   1.085       .  S
C2339      C2340   1.390       .  A
C2339      H2350   1.084       .  S
C2340      C2341   1.400       .  A
C2340      H2351   1.084       .  S
C2341      C2342   1.423       .  A
C2341      C2346   1.404       .  A
C2342      C2343   1.414       .  A
C2343      C2344   1.392       .  A
C2343      H2352   1.077       .  S
C2344      C2345   1.397       .  A
C2344      H2353   1.084       .  S
C2345      C2346   1.399       .  A
C2346      H2354   1.085       .  S
C2355      C2356   1.399       .  A
C2355      C2360   1.399       .  A
C2356      C2357   1.405       .  A
C2356      H2369   1.083       .  S
C2357      C2358   1.419       .  A
C2357      H2370   1.078       .  S
C2358      C2364   1.435       .  A
C2358      C2359   1.423       .  A
C2359      C2361   1.398       .  A
C2359      C2360   1.400       .  A
C2360      H2371   1.086       .  S
C2361      C2362   1.385       .  A
C2361      H2372   1.084       .  S
C2362      C2363   1.398       .  A
C2362      H2373   1.084       .  S
C2363      C2364   1.423       .  A
C2363      C2368   1.400       .  A
C2364      C2365   1.419       .  A
C2365      C2366   1.406       .  A
C2365      H2374   1.078       .  S
C2366      C2367   1.399       .  A
C2366      H2375   1.083       .  S
C2367      C2368   1.397       .  A
C2368      H2376   1.085       .  S
C2377      C2378   1.400       .  A
C2377      C2382   1.398       .  A
C2378      C2379   1.406       .  A
C2378      H2391   1.083       .  S
C2379      C2380   1.419       .  A
C2379      H2392   1.078       .  S
C2380      C2386   1.438       .  A
C2380      C2381   1.424       .  A
C2381      C2383   1.398       .  A
C2381      C2382   1.405       .  A
C2382      H2393   1.085       .  S
C2383      C2384   1.389       .  A
C2383      H2394   1.084       .  S
C2384      C2385   1.400       .  A
C2384      H2395   1.084       .  S
C2385      C2386   1.423       .  A
C2385      C2390   1.407       .  A
C2386      C2387   1.418       .  A
C2387      C2388   1.406       .  A
C2387      H2396   1.078       .  S
C2388      C2389   1.403       .  A
C2388      H2397   1.083       .  S
C2389      C2390   1.405       .  A
C2390      H2398   1.085       .  S
C2399      C2400   1.400       .  A
C2399      C2404   1.401       .  A
C2400      C2401   1.401       .  A
C2400      H2413   1.083       .  S
C2401      C2402   1.417       .  A
C2401      H2414   1.077       .  S
C2402      C2408   1.431       .  A
C2402      C2403   1.422       .  A
C2403      C2405   1.399       .  A
C2403      C2404   1.400       .  A
C2404      H2415   1.083       .  S
C2405      C2406   1.387       .  A
C2405      H2416   1.084       .  S
C2406      C2407   1.398       .  A
C2406      H2417   1.084       .  S
C2407      C2408   1.424       .  A
C2407      C2412   1.402       .  A
C2408      C2409   1.417       .  A
C2409      C2410   1.400       .  A
C2409      H2418   1.078       .  S
C2410      C2411   1.397       .  A
C2410      H2419   1.083       .  S
C2411      C2412   1.397       .  A
C2412      H2420   1.085       .  S
C2421      C2422   1.402       .  A
C2421      C2426   1.402       .  A
C2422      C2423   1.403       .  A
C2422      H2435   1.083       .  S
C2423      C2424   1.417       .  A
C2423      H2436   1.078       .  S
C2424      C2430   1.435       .  A
C2424      C2425   1.423       .  A
C2425      C2427   1.399       .  A
C2425      C2426   1.404       .  A
C2426      H2437   1.085       .  S
C2427      C2428   1.388       .  A
C2427      H2438   1.084       .  S
C2428      C2429   1.399       .  A
C2428      H2439   1.084       .  S
C2429      C2430   1.422       .  A
C2429      C2434   1.403       .  A
C2430      C2431   1.419       .  A
C2431      C2432   1.404       .  A
C2431      H2440   1.078       .  S
C2432      C2433   1.398       .  A
C2432      H2441   1.083       .  S
C2433      C2434   1.400       .  A
C2434      H2442   1.086       .  S
C2443      C2444   1.400       .  A
C2443      C2448   1.404       .  A
C2444      C2445   1.393       .  A
C2444      H2457   1.084       .  S
C2445      C2446   1.413       .  A
C2445      H2458   1.077       .  S
C2446      C2452   1.432       .  A
C2446      C2447   1.423       .  A
C2447      C2449   1.401       .  A
C2447      C2448   1.414       .  A
C2448      H2459   1.084       .  S
C2449      C2450   1.396       .  A
C2449      H2460   1.084       .  S
C2450      C2451   1.402       .  A
C2450      H2461   1.084       .  S
C2451      C2452   1.423       .  A
C2451      C2456   1.413       .  A
C2452      C2453   1.415       .  A
C2453      C2454   1.395       .  A
C2453      H2462   1.077       .  S
C2454      C2455   1.399       .  A
C2454      H2463   1.084       .  S
C2455      C2456   1.405       .  A
C2456      H2464   1.084       .  S
C2465      C2466   1.402       .  A
C2465      C2470   1.405       .  A
C2466      C2467   1.395       .  A
C2466      H2479   1.084       .  S
C2467      C2468   1.414       .  A
C2467      H2480   1.077       .  S
C2468      C2474   1.434       .  A
C2468      C2469   1.423       .  A
C2469      C2471   1.402       .  A
C2469      C2470   1.415       .  A
C2470      H2481   1.084       .  S
C2471      C2472   1.396       .  A
C2471      H2482   1.084       .  S
C2472      C2473   1.401       .  A
C2472      H2483   1.084       .  S
C2473      C2474   1.424       .  A
C2473      C2478   1.415       .  A
C2474      C2475   1.414       .  A
C2475      C2476   1.395       .  A
C2475      H2484   1.077       .  S
C2476      C2477   1.401       .  A
C2476      H2485   1.084       .  S
C2477      C2478   1.405       .  A
C2478      H2486   1.084       .  S
C2487      C2488   1.405       .  A
C2487      C2492   1.404       .  A
C2488      C2489   1.407       .  A
C2488      H2501   1.083       .  S
C2489      C2490   1.418       .  A
C2489      H2502   1.078       .  S
C2490      C2496   1.439       .  A
C2490      C2491   1.422       .  A
C2491      C2493   1.399       .  A
C2491      C2492   1.406       .  A
C2492      H2503   1.084       .  S
C2493      C2494   1.388       .  A
C2493      H2504   1.084       .  S
C2494      C2495   1.398       .  A
C2494      H2505   1.084       .  S
C2495      C2496   1.423       .  A
C2495      C2500   1.406       .  A
C2496      C2497   1.418       .  A
C2497      C2498   1.406       .  A
C2497      H2506   1.078       .  S
C2498      C2499   1.403       .  A
C2498      H2507   1.083       .  S
C2499      C2500   1.400       .  A
C2500      H2508   1.085       .  S
C2509      C2510   1.403       .  A
C2509      C2514   1.402       .  A
C2510      C2511   1.398       .  A
C2510      H2523   1.083       .  S
C2511      C2512   1.414       .  A
C2511      H2524   1.077       .  S
C2512      C2518   1.433   1_554  A
C2512      C2513   1.424       .  A
C2513      C2515   1.399       .  A
C2513      C2514   1.408       .  A
C2514      H2525   1.084       .  S
C2515      C2516   1.390   1_554  A
C2515      H2526   1.084       .  S
C2516      C2517   1.400       .  A
C2516      H2527   1.084       .  S
C2517      C2518   1.422       .  A
C2517      C2522   1.406       .  A
C2518      C2519   1.416       .  A
C2519      C2520   1.400       .  A
C2519      H2528   1.077       .  S
C2520      C2521   1.401       .  A
C2520      H2529   1.083       .  S
C2521      C2522   1.404       .  A
C2522      H2530   1.084       .  S
C2531      C2532   1.401       .  A
C2531      C2536   1.402       .  A
C2532      C2533   1.400       .  A
C2532      H2545   1.083       .  S
C2533      C2534   1.417       .  A
C2533      H2546   1.077       .  S
C2534      C2540   1.432       .  A
C2534      C2535   1.422       .  A
C2535      C2537   1.399       .  A
C2535      C2536   1.404       .  A
C2536      H2547   1.085       .  S
C2537      C2538   1.389       .  A
C2537      H2548   1.084       .  S
C2538      C2539   1.399       .  A
C2538      H2549   1.084       .  S
C2539      C2540   1.424       .  A
C2539      C2544   1.406       .  A
C2540      C2541   1.416       .  A
C2541      C2542   1.399       .  A
C2541      H2550   1.077       .  S
C2542      C2543   1.400       .  A
C2542      H2551   1.084       .  S
C2543      C2544   1.399       .  A
C2544      H2552   1.085       .  S
C2553      C2554   1.398       .  A
C2553      C2558   1.399       .  A
C2554      C2555   1.403       .  A
C2554      H2567   1.083       .  S
C2555      C2556   1.419       .  A
C2555      H2568   1.078       .  S
C2556      C2562   1.430       .  A
C2556      C2557   1.422       .  A
C2557      C2559   1.398       .  A
C2557      C2558   1.396       .  A
C2558      H2569   1.086       .  S
C2559      C2560   1.384       .  A
C2559      H2570   1.084       .  S
C2560      C2561   1.397       .  A
C2560      H2571   1.084       .  S
C2561      C2562   1.423       .  A
C2561      C2566   1.396       .  A
C2562      C2563   1.418       .  A
C2563      C2564   1.402       .  A
C2563      H2572   1.078       .  S
C2564      C2565   1.396       .  A
C2564      H2573   1.083       .  S
C2565      C2566   1.397       .  A
C2566      H2574   1.085       .  S
C2575      C2576   1.402       .  A
C2575      C2580   1.402       .  A
C2576      C2577   1.404       .  A
C2576      H2589   1.083       .  S
C2577      C2578   1.417       .  A
C2577      H2590   1.078       .  S
C2578      C2584   1.436       .  A
C2578      C2579   1.423       .  A
C2579      C2581   1.398       .  A
C2579      C2580   1.403       .  A
C2580      H2591   1.085       .  S
C2581      C2582   1.387       .  A
C2581      H2592   1.084       .  S
C2582      C2583   1.399       .  A
C2582      H2593   1.084       .  S
C2583      C2584   1.422       .  A
C2583      C2588   1.403       .  A
C2584      C2585   1.418       .  A
C2585      C2586   1.405       .  A
C2585      H2594   1.078       .  S
C2586      C2587   1.402       .  A
C2586      H2595   1.083       .  S
C2587      C2588   1.402       .  A
C2588      H2596   1.085       .  S
C2597      C2598   1.402       .  A
C2597      C2602   1.399       .  A
C2598      C2599   1.409       .  A
C2598      H2611   1.083       .  S
C2599      C2600   1.419       .  A
C2599      H2612   1.079       .  S
C2600      C2606   1.435       .  A
C2600      C2601   1.423       .  A
C2601      C2603   1.397       .  A
C2601      C2602   1.397       .  A
C2602      H2613   1.086       .  S
C2603      C2604   1.383       .  A
C2603      H2614   1.084       .  S
C2604      C2605   1.397       .  A
C2604      H2615   1.084       .  S
C2605      C2606   1.422       .  A
C2605      C2610   1.397       .  A
C2606      C2607   1.419       .  A
C2607      C2608   1.409       .  A
C2607      H2616   1.079       .  S
C2608      C2609   1.401       .  A
C2608      H2617   1.083       .  S
C2609      C2610   1.397       .  A
C2610      H2618   1.084       .  S
C2619      C2620   1.399       .  A
C2619      C2624   1.397       .  A
C2620      C2621   1.392       .  A
C2620      H2633   1.084       .  S
C2621      C2622   1.413       .  A
C2621      H2634   1.077       .  S
C2622      C2628   1.425       .  A
C2622      C2623   1.424       .  A
C2623      C2625   1.398       .  A
C2623      C2624   1.402       .  A
C2624      H2635   1.085       .  S
C2625      C2626   1.388       .  A
C2625      H2636   1.084       .  S
C2626      C2627   1.399       .  A
C2626      H2637   1.084       .  S
C2627      C2628   1.421       .  A
C2627      C2632   1.400       .  A
C2628      C2629   1.416       .  A
C2629      C2630   1.395       .  A
C2629      H2638   1.077       .  S
C2630      C2631   1.398       .  A
C2630      H2639   1.084       .  S
C2631      C2632   1.398       .  A
C2632      H2640   1.084       .  S
C2641      C2642   1.400       .  A
C2641      C2646   1.403       .  A
C2642      C2643   1.396       .  A
C2642      H2655   1.083       .  S
C2643      C2644   1.415       .  A
C2643      H2656   1.077       .  S
C2644      C2650   1.430       .  A
C2644      C2645   1.421       .  A
C2645      C2647   1.400       .  A
C2645      C2646   1.404       .  A
C2646      H2657   1.084       .  S
C2647      C2648   1.390       .  A
C2647      H2658   1.084       .  S
C2648      C2649   1.399       .  A
C2648      H2659   1.084       .  S
C2649      C2650   1.423       .  A
C2649      C2654   1.406       .  A
C2650      C2651   1.413       .  A
C2651      C2652   1.395       .  A
C2651      H2660   1.077       .  S
C2652      C2653   1.403       .  A
C2652      H2661   1.083       .  S
C2653      C2654   1.402       .  A
C2654      H2662   1.084       .  S
C2663      C2664   1.403       .  A
C2663      C2668   1.402       .  A
C2664      C2665   1.404       .  A
C2664      H2677   1.083       .  S
C2665      C2666   1.418       .  A
C2665      H2678   1.078       .  S
C2666      C2672   1.434       .  A
C2666      C2667   1.422       .  A
C2667      C2669   1.398       .  A
C2667      C2668   1.400       .  A
C2668      H2679   1.085       .  S
C2669      C2670   1.386       .  A
C2669      H2680   1.084       .  S
C2670      C2671   1.398       .  A
C2670      H2681   1.084       .  S
C2671      C2672   1.423       .  A
C2671      C2676   1.403       .  A
C2672      C2673   1.417       .  A
C2673      C2674   1.403       .  A
C2673      H2682   1.078       .  S
C2674      C2675   1.402       .  A
C2674      H2683   1.083       .  S
C2675      C2676   1.399       .  A
C2676      H2684   1.085       .  S
C2685      C2686   1.404       .  A
C2685      C2690   1.403       .  A
C2686      C2687   1.410       .  A
C2686      H2699   1.083       .  S
C2687      C2688   1.419       .  A
C2687      H2700   1.078       .  S
C2688      C2694   1.441       .  A
C2688      C2689   1.423       .  A
C2689      C2691   1.398       .  A
C2689      C2690   1.404       .  A
C2690      H2701   1.085       .  S
C2691      C2692   1.387       .  A
C2691      H2702   1.084       .  S
C2692      C2693   1.398       .  A
C2692      H2703   1.084       .  S
C2693      C2694   1.423       .  A
C2693      C2698   1.405       .  A
C2694      C2695   1.419       .  A
C2695      C2696   1.410       .  A
C2695      H2704   1.078       .  S
C2696      C2697   1.405       .  A
C2696      H2705   1.083       .  S
C2697      C2698   1.404       .  A
C2698      H2706   1.085       .  S
C2707      C2708   1.403       .  A
C2707      C2712   1.404       .  A
C2708      C2709   1.397       .  A
C2708      H2721   1.083       .  S
C2709      C2710   1.413       .  A
C2709      H2722   1.078       .  S
C2710      C2716   1.433       .  A
C2710      C2711   1.423       .  A
C2711      C2713   1.400       .  A
C2711      C2712   1.411       .  A
C2712      H2723   1.084       .  S
C2713      C2714   1.393       .  A
C2713      H2724   1.084       .  S
C2714      C2715   1.401       .  A
C2714      H2725   1.084       .  S
C2715      C2716   1.423       .  A
C2715      C2720   1.409       .  A
C2716      C2717   1.416       .  A
C2717      C2718   1.398       .  A
C2717      H2726   1.078       .  S
C2718      C2719   1.398       .  A
C2718      H2727   1.084       .  S
C2719      C2720   1.401       .  A
C2720      H2728   1.085       .  S
C2729      C2730   1.400       .  A
C2729      C2734   1.399       .  A
C2730      C2731   1.401       .  A
C2730      H2743   1.083       .  S
C2731      C2732   1.417       .  A
C2731      H2744   1.078       .  S
C2732      C2738   1.432       .  A
C2732      C2733   1.423       .  A
C2733      C2735   1.398       .  A
C2733      C2734   1.400       .  A
C2734      H2745   1.085       .  S
C2735      C2736   1.386       .  A
C2735      H2746   1.084       .  S
C2736      C2737   1.398       .  A
C2736      H2747   1.084       .  S
C2737      C2738   1.422       .  A
C2737      C2742   1.400       .  A
C2738      C2739   1.417       .  A
C2739      C2740   1.401       .  A
C2739      H2748   1.078       .  S
C2740      C2741   1.401       .  A
C2740      H2749   1.083       .  S
C2741      C2742   1.401       .  A
C2742      H2750   1.085       .  S
C2751      C2752   1.402       .  A
C2751      C2756   1.404       .  A
C2752      C2753   1.392       .  A
C2752      H2765   1.083       .  S
C2753      C2754   1.413       .  A
C2753      H2766   1.077       .  S
C2754      C2760   1.429   1_554  A
C2754      C2755   1.422       .  A
C2755      C2757   1.401       .  A
C2755      C2756   1.409       .  A
C2756      H2767   1.084       .  S
C2757      C2758   1.393   1_554  A
C2757      H2768   1.084       .  S
C2758      C2759   1.400       .  A
C2758      H2769   1.084       .  S
C2759      C2760   1.423       .  A
C2759      C2764   1.409       .  A
C2760      C2761   1.412       .  A
C2761      C2762   1.391       .  A
C2761      H2770   1.077       .  S
C2762      C2763   1.403       .  A
C2762      H2771   1.083       .  S
C2763      C2764   1.403       .  A
C2764      H2772   1.084       .  S
C2773      C2774   1.398       .  A
C2773      C2778   1.396       .  A
C2774      C2775   1.402       .  A
C2774      H2787   1.083       .  S
C2775      C2776   1.418       .  A
C2775      H2788   1.078       .  S
C2776      C2782   1.432       .  A
C2776      C2777   1.423       .  A
C2777      C2779   1.397       .  A
C2777      C2778   1.399       .  A
C2778      H2789   1.086       .  S
C2779      C2780   1.385       .  A
C2779      H2790   1.084       .  S
C2780      C2781   1.397       .  A
C2780      H2791   1.084       .  S
C2781      C2782   1.424       .  A
C2781      C2786   1.399       .  A
C2782      C2783   1.418       .  A
C2783      C2784   1.403       .  A
C2783      H2792   1.078       .  S
C2784      C2785   1.398       .  A
C2784      H2793   1.083       .  S
C2785      C2786   1.394       .  A
C2786      H2794   1.085       .  S
C2795      C2796   1.400       .  A
C2795      C2800   1.402       .  A
C2796      C2797   1.397       .  A
C2796      H2809   1.083       .  S
C2797      C2798   1.415       .  A
C2797      H2810   1.078       .  S
C2798      C2804   1.430       .  A
C2798      C2799   1.422       .  A
C2799      C2801   1.400       .  A
C2799      C2800   1.405       .  A
C2800      H2811   1.085       .  S
C2801      C2802   1.390       .  A
C2801      H2812   1.084       .  S
C2802      C2803   1.399       .  A
C2802      H2813   1.084       .  S
C2803      C2804   1.424       .  A
C2803      C2808   1.406       .  A
C2804      C2805   1.415       .  A
C2805      C2806   1.396       .  A
C2805      H2814   1.078       .  S
C2806      C2807   1.399       .  A
C2806      H2815   1.084       .  S
C2807      C2808   1.399       .  A
C2808      H2816   1.085       .  S
