geometry optimzed in LAMMPS
_audit_creation_date              2020-11-30 
_audit_creation_method            'lammps2cif' 
_symmetry_space_group_name_H-M    'P1' 
_symmetry_Int_Tables_number       1 
_symmetry_cell_setting            triclinic 
loop_ 
_symmetry_equiv_pos_as_xyz 
  x,y,z 
_cell_length_a                    39.43523431 
_cell_length_b                    39.38469539344704 
_cell_length_c                    70.37961449652056 
_cell_angle_alpha                 89.97607247255539 
_cell_angle_beta                  89.99930507930883 
_cell_angle_gamma                 120.05126345866921 
loop_ 
_atom_site_label 
_atom_site_type_symbol 
_atom_site_fract_x 
_atom_site_fract_y 
_atom_site_fract_z 
_atom_site_charge 
Zr1        Zr  0.60750475  0.75671902  0.64361887     2.17500
O2          O  0.57566963  0.71058639  0.66968971    -0.50600
O3          O  0.55511045  0.77168243  0.63878161    -0.73800
O4          O  0.61395967  0.78987315  0.67390848    -0.80600
O5          O  0.57056067  0.67062955  0.60936980    -0.82400
O6          O  0.67367266  0.84492462  0.67415839    -0.78000
O7          O  0.55421657  0.69227865  0.63593050    -0.89600
O8          O  0.57248649  0.81155880  0.61307949    -0.75600
O9          O  0.63975860  0.82378074  0.63425717    -0.85100
O10         O  0.60140293  0.75675727  0.60989347    -0.84800
O11         O  0.67386356  0.78205281  0.65406985    -0.71500
O12         O  0.63772930  0.72128865  0.63108203    -0.83600
Zr13       Zr  0.73157956  0.81670969  0.59783191     2.26400
Zr14       Zr  0.70604986  0.84919249  0.64410969     2.06300
Zr15       Zr  0.63246973  0.72301714  0.59723631     2.10000
Zr16       Zr  0.63445256  0.82346429  0.60052566     1.78800
O17         O  0.62557035  0.65864452  0.59235651    -0.92500
O18         O  0.64315417  0.88881066  0.60438937    -0.40300
O19         O  0.66528614  0.78985565  0.58711749    -0.76900
O20         O  0.70114862  0.85171745  0.61028319    -0.95600
O21         O  0.73722348  0.81561935  0.63143589    -0.88900
O22         O  0.69898672  0.74940296  0.60700893    -0.91700
C23         C  0.54890956  0.79230714  0.62661599     1.02000
C24         C  0.54740484  0.66649060  0.62313956     1.15000
C25         C  0.64094670  0.82086270  0.68210184     1.05700
O26         O  0.70501713  0.91032860  0.64636108    -0.93900
O27         O  0.76874222  0.90097706  0.63297210    -0.89600
O28         O  0.78497720  0.88200557  0.60551279    -0.82800
C29         C  0.79172381  0.90676786  0.61891495     1.12400
O30         O  0.67745563  0.70041941  0.66599089    -0.95900
Zr31       Zr  0.70481859  0.74867513  0.64047370     1.88900
O32         O  0.78724921  0.80832427  0.60442603    -0.72500
O33         O  0.75512793  0.86769564  0.66900532    -0.51800
O34         O  0.74390715  0.77087074  0.66938528    -0.96400
O35         O  0.70120545  0.68680576  0.63212272    -0.53700
O36         O  0.77191983  0.77054023  0.63094977    -0.73000
C37         C  0.79562098  0.79136528  0.61768388     0.99300
O38         O  0.75452286  0.85734938  0.56931727    -0.61800
O39         O  0.58839005  0.71471480  0.57110573    -0.56600
O40         O  0.72914043  0.77947723  0.56975704    -0.93300
O41         O  0.66939033  0.72421641  0.56925556    -0.91800
O42         O  0.58845717  0.79597195  0.57418472    -0.92100
O43         O  0.65987715  0.86462524  0.57236137    -0.90900
C44         C  0.70345747  0.74697939  0.56214003     1.18200
H45         H  0.57422942  0.74394547  0.60603569     0.34100
H46         H  0.71502260  0.87863829  0.60591202     0.45000
H47         H  0.71088855  0.73555074  0.60107599     0.38500
H48         H  0.67487049  0.78014274  0.66775450     0.35000
H49         H  0.62118123  0.88808768  0.59722858     0.26800
H50         H  0.75645573  0.89097612  0.67511323     0.32700
H51         H  0.76475529  0.79805717  0.66656532     0.38600
H52         H  0.57300418  0.80948769  0.57466216     0.33100
H53         H  0.60542942  0.72554434  0.55979045     0.31900
H54         H  0.61038467  0.64888016  0.58042850     0.33600
H55         H  0.72322725  0.69384186  0.62324970     0.32600
H56         H  0.66588941  0.84905291  0.56335081     0.36600
H57         H  0.73274854  0.84433058  0.56009108     0.29300
H58         H  0.55580888  0.71656775  0.67476395     0.33600
H59         H  0.69820511  0.69434560  0.66942368     0.36400
H60         H  0.57333345  0.68606584  0.56885204     0.29000
H61         H  0.75452165  0.88174963  0.57269253     0.41900
H62         H  0.70720701  0.91940848  0.63306071     0.31900
H63         H  0.63676790  0.89003243  0.61788301     0.39600
H64         H  0.67740660  0.67286688  0.62416086     0.31400
H65         H  0.74286754  0.84665896  0.67865524     0.31500
H66         H  0.59563611  0.71861360  0.67983349     0.31700
Zr67       Zr  0.79337392  0.56598528  0.36199164     2.17500
O68         O  0.74573697  0.53238462  0.33677357    -0.50600
O69         O  0.81038531  0.51518269  0.36662358    -0.73800
O70         O  0.82667380  0.57530548  0.33146115    -0.80600
O71         O  0.70790124  0.52864384  0.39658092    -0.82400
O72         O  0.88426118  0.63311614  0.33202904    -0.78000
O73         O  0.72820354  0.51241170  0.36965287    -0.89600
O74         O  0.85072477  0.53261791  0.39225234    -0.75600
O75         O  0.86033271  0.59861990  0.37146138    -0.85100
O76         O  0.79361781  0.56026042  0.39569183    -0.84800
O77         O  0.81950660  0.63243974  0.35138451    -0.71500
O78         O  0.75781511  0.59609732  0.37411442    -0.83600
Zr79       Zr  0.85166483  0.69002661  0.40740941     2.26400
Zr80       Zr  0.88642163  0.66525338  0.36176441     2.06300
Zr81       Zr  0.75923224  0.59107268  0.40793334     2.10000
Zr82       Zr  0.86022874  0.59360528  0.40514856     1.78800
O83         O  0.69774334  0.59151408  0.40858985    -0.92500
O84         O  0.92638277  0.60494296  0.40061785    -0.40300
O85         O  0.82582418  0.62396035  0.41834453    -0.76900
O86         O  0.88810742  0.66057258  0.39560848    -0.95600
O87         O  0.85189924  0.69598067  0.37381068    -0.88900
O88         O  0.78504790  0.65708823  0.39770741    -0.91700
C89         C  0.83152118  0.50937798  0.37860292     1.02000
C90         C  0.70275431  0.50551116  0.38271103     1.15000
C91         C  0.85870539  0.60166547  0.32367268     1.05700
O92         O  0.94707247  0.66315646  0.36157085    -0.93900
O93         O  0.93608025  0.72948246  0.37278434    -0.89600
O94         O  0.91566590  0.74507118  0.39996980    -0.82800
C95         C  0.94078101  0.75251513  0.38670691     1.12400
O96         O  0.74127437  0.63522130  0.33712242    -0.95900
Zr97       Zr  0.78541571  0.66303017  0.36417376     1.88900
O98         O  0.84044133  0.74382327  0.40071346    -0.72500
O99         O  0.90642770  0.71252488  0.33581900    -0.51800
O100        O  0.81521377  0.70430487  0.33636023    -0.96400
O101        O  0.72205036  0.65848485  0.36915053    -0.53700
O102        O  0.80129566  0.72805997  0.37473021    -0.73000
C103        C  0.82179190  0.75155232  0.38811325     0.99300
O104        O  0.89211497  0.71485871  0.43584539    -0.61800
O105        O  0.74153697  0.54542520  0.43445649    -0.56600
O106        O  0.81227413  0.68737674  0.43455460    -0.93300
O107        O  0.75965421  0.62572098  0.43654186    -0.91800
O108        O  0.83240968  0.54638481  0.43100808    -0.92100
O109        O  0.89941415  0.61613844  0.43401805    -0.90900
C110        C  0.78075625  0.66100224  0.44261676     1.18200
H111        H  0.78097952  0.53300086  0.39953391     0.34100
H112        H  0.91490211  0.67494384  0.40013232     0.45000
H113        H  0.77069993  0.66867461  0.40341818     0.38500
H114        H  0.81798258  0.63363521  0.33767646     0.35000
H115        H  0.92602415  0.58190648  0.40648417     0.26800
H116        H  0.93079244  0.71449823  0.33077254     0.32700
H117        H  0.80967939  0.72608795  0.33761378     0.38600
H118        H  0.84862320  0.53368207  0.43152980     0.33100
H119        H  0.71330811  0.53564542  0.43659580     0.31900
H120        H  0.68373269  0.57566806  0.41987869     0.33600
H121        H  0.72459982  0.67235806  0.38125480     0.32600
H122        H  0.89008644  0.63214316  0.44060928     0.36600
H123        H  0.87777047  0.69490763  0.44577886     0.29300
H124        H  0.75534179  0.51723805  0.32962176     0.33600
H125        H  0.73718502  0.65654811  0.33233266     0.36400
H126        H  0.74251586  0.52254614  0.42929843     0.29000
H127        H  0.91529088  0.71214323  0.43315121     0.41900
H128        H  0.96523864  0.68572572  0.35359732     0.31900
H129        H  0.92837132  0.60147265  0.38680886     0.39600
H130        H  0.70394344  0.63049312  0.37213203     0.31400
H131        H  0.88674935  0.69924634  0.32566088     0.31500
H132        H  0.74889449  0.55346202  0.32801048     0.31700
Zr133      Zr  0.39032633  0.15541940  0.36518756     2.17500
O134        O  0.42348234  0.14506547  0.33843745    -0.50600
O135        O  0.44211302  0.22231099  0.37128273    -0.73800
O136        O  0.38319877  0.18335443  0.33557983    -0.80600
O137        O  0.42752764  0.10370953  0.39767459    -0.82400
O138        O  0.32419079  0.18041627  0.33597154    -0.78000
O139        O  0.44335716  0.14222971  0.37142619    -0.89600
O140        O  0.42743224  0.24184419  0.39887666    -0.75600
O141        O  0.35980400  0.19074370  0.37646019    -0.85100
O142        O  0.39615234  0.15737270  0.39891603    -0.84800
O143        O  0.32352652  0.11785998  0.35446168    -0.71500
O144        O  0.35864009  0.08805059  0.37527369    -0.83600
Zr145      Zr  0.26655346  0.08813006  0.41050263     2.26400
Zr146      Zr  0.29307679  0.15315506  0.36648078     2.06300
Zr147      Zr  0.36399099  0.09063505  0.40913860     2.10000
Zr148      Zr  0.36461081  0.19128631  0.41020508     1.78800
O149        O  0.36246780  0.02817698  0.40715688    -0.92500
O150        O  0.35826619  0.24954593  0.40741374    -0.40300
O151        O  0.33294596  0.12493970  0.42149396    -0.76900
O152        O  0.29776419  0.15543784  0.40043615    -0.95600
O153        O  0.26054686  0.08642048  0.37682580    -0.88900
O154        O  0.29742329  0.05344230  0.39906557    -0.91700
C155        C  0.44977772  0.24734215  0.38463052     1.02000
C156        C  0.45072860  0.12308881  0.38397769     1.15000
C157        C  0.35631056  0.18788792  0.32773573     1.05700
O158        O  0.30237858  0.21909975  0.36730784    -0.93900
O159        O  0.23054439  0.14139148  0.37896710    -0.89600
O160        O  0.21382071  0.10153906  0.40483103    -0.82800
C161        C  0.20743011  0.12206350  0.39273545     1.12400
O162        O  0.32043795  0.03854641  0.33797448    -0.95900
Zr163      Zr  0.29133887  0.05178866  0.36552194     1.88900
O164        O  0.21123484  0.02459412  0.40273280    -0.72500
O165        O  0.24288909  0.13267026  0.34201437    -0.51800
O166        O  0.25012697  0.04087853  0.33777487    -0.96400
O167        O  0.29104380  0.98999193  0.36889646    -0.53700
O168        O  0.22530012  0.00426019  0.37520254    -0.73000
C169        C  0.20237953  0.00009854  0.38904992     0.99300
O170        O  0.24073215  0.09976399  0.43980790    -0.61800
O171        O  0.40865300  0.11360341  0.43613254    -0.56600
O172        O  0.26864758  0.04993429  0.43713295    -0.93300
O173        O  0.32800899  0.05369189  0.43700694    -0.91800
O174        O  0.40968298  0.20735501  0.43675018    -0.92100
O175        O  0.33980689  0.20532360  0.43907438    -0.90900
C176        C  0.29392697  0.04196425  0.44416477     1.18200
H177        H  0.42326900  0.17082080  0.40278753     0.34100
H178        H  0.28430112  0.16824345  0.40572212     0.45000
H179        H  0.28502135  0.02705524  0.40415286     0.38500
H180        H  0.32216918  0.11611005  0.34073323     0.35000
H181        H  0.38195724  0.27061928  0.41370018     0.26800
H182        H  0.24756835  0.15729535  0.33588949     0.32700
H183        H  0.22963582  0.04656206  0.34218400     0.38600
H184        H  0.40078519  0.18207138  0.44334230     0.33100
H185        H  0.41748658  0.09419928  0.43744790     0.31900
H186        H  0.38340601  0.03097511  0.41588774     0.33600
H187        H  0.27760885  0.97861963  0.38109008     0.32600
H188        H  0.31235389  0.18367269  0.44009132     0.36600
H189        H  0.26134887  0.10637087  0.44947999     0.29300
H190        H  0.44171042  0.17149991  0.33330144     0.33600
H191        H  0.29965472  0.01327464  0.33275821     0.36400
H192        H  0.43212218  0.13778390  0.43164314     0.29000
H193        H  0.24106949  0.12480974  0.43778614     0.41900
H194        H  0.28795189  0.21951455  0.37873674     0.31900
H195        H  0.36237619  0.25644027  0.39375658     0.39600
H196        H  0.31874428  0.99777308  0.37127359     0.31400
H197        H  0.25021977  0.11933437  0.33229537     0.31500
H198        H  0.40323789  0.13191606  0.32850527     0.31700
Zr199      Zr  0.20964621  0.77492776  0.64518133     2.17500
O200        O  0.25697054  0.78865900  0.67052517    -0.50600
O201        O  0.19272602  0.70689798  0.63996486    -0.73800
O202        O  0.17766930  0.75007165  0.67587449    -0.80600
O203        O  0.29355641  0.82008297  0.60939499    -0.82400
O204        O  0.12154649  0.75263432  0.67634764    -0.78000
O205        O  0.27457799  0.78689447  0.63743176    -0.89600
O206        O  0.15199947  0.68428925  0.61449699    -0.75600
O207        O  0.14251787  0.74053409  0.63610374    -0.85100
O208        O  0.20857569  0.76886296  0.61149700    -0.84800
O209        O  0.18445267  0.81580763  0.65608955    -0.71500
O210        O  0.24510875  0.84082668  0.63292853    -0.83600
Zr211      Zr  0.14919671  0.83941724  0.60058833     2.26400
Zr212      Zr  0.11712229  0.78111809  0.64657564     2.06300
Zr213      Zr  0.24282742  0.83389994  0.59910645     2.10000
Zr214      Zr  0.14180565  0.73567089  0.60233403     1.78800
O215        O  0.30637373  0.89350951  0.59667792    -0.92500
O216        O  0.07566251  0.68041617  0.60634084    -0.40300
O217        O  0.17582077  0.80031588  0.58919696    -0.76900
O218        O  0.11373104  0.77386079  0.61274167    -0.95600
O219        O  0.15070891  0.84623447  0.63417193    -0.88900
O220        O  0.21658444  0.87379997  0.60943605    -0.91700
C221        C  0.17150856  0.68001449  0.62790356     1.02000
C222        C  0.29898528  0.80316107  0.62374033     1.15000
C223        C  0.14663833  0.74548841  0.68423993     1.05700
O224        O  0.05690113  0.71834029  0.64987759    -0.93900
O225        O  0.06472502  0.79181330  0.63607063    -0.89600
O226        O  0.08484969  0.82909320  0.60925242    -0.82800
C227        C  0.05954273  0.81022675  0.62235048     1.12400
O228        O  0.26412292  0.89808206  0.66907530    -0.95900
Zr229      Zr  0.21783963  0.88049055  0.64286213     1.88900
O230        O  0.16079101  0.90453092  0.60618937    -0.72500
O231        O  0.10143942  0.81265388  0.67215256    -0.51800
O232        O  0.19446564  0.89716782  0.67144059    -0.96400
O233        O  0.28062908  0.93880916  0.63583523    -0.53700
O234        O  0.19936667  0.92804029  0.63230683    -0.73000
C235        C  0.17905673  0.93095144  0.61877020     0.99300
O236        O  0.10739020  0.82307443  0.57261021    -0.61800
O237        O  0.25434304  0.80221577  0.57214751    -0.56600
O238        O  0.18622179  0.87464362  0.57263044    -0.93300
O239        O  0.24129114  0.86976684  0.57128849    -0.91800
O240        O  0.17001500  0.71742239  0.57621187    -0.92100
O241        O  0.10309717  0.72237316  0.57344485    -0.90900
C242        C  0.21847913  0.88153283  0.56477288     1.18200
H243        H  0.22105447  0.75422807  0.60746927     0.34100
H244        H  0.08669928  0.76108216  0.60851604     0.45000
H245        H  0.23040784  0.89951651  0.60360489     0.38500
H246        H  0.18670613  0.81872452  0.66979125     0.35000
H247        H  0.07501156  0.65912133  0.59859073     0.26800
H248        H  0.07818956  0.79106186  0.67846781     0.32700
H249        H  0.16847456  0.89335070  0.66792518     0.38600
H250        H  0.15041395  0.68978732  0.57334731     0.33100
H251        H  0.23442881  0.79884451  0.56261010     0.31900
H252        H  0.31621210  0.89227054  0.58390066     0.33600
H253        H  0.27505377  0.95310066  0.62587829     0.32600
H254        H  0.09071609  0.73880714  0.57453655     0.36600
H255        H  0.11868195  0.81250316  0.56336652     0.29300
H256        H  0.24972581  0.76287548  0.67618113     0.33600
H257        H  0.27164542  0.92531959  0.67257223     0.36400
H258        H  0.27953831  0.82262592  0.56670318     0.29000
H259        H  0.08217680  0.79992643  0.57632784     0.41900
H260        H  0.04549695  0.71215891  0.63694858     0.31900
H261        H  0.07477581  0.67181635  0.61964323     0.39600
H262        H  0.29599915  0.92873691  0.62926257     0.31400
H263        H  0.12290919  0.82078153  0.68149691     0.31500
H264        H  0.25095575  0.80268669  0.68044484     0.31700
Zr265      Zr  0.19347108  0.35951372  0.64222083     2.17500
O266        O  0.18029982  0.39170986  0.66844832    -0.50600
O267        O  0.26050105  0.41111781  0.63618427    -0.73800
O268        O  0.22398321  0.35566176  0.67162501    -0.80600
O269        O  0.14448578  0.39673010  0.60811637    -0.82400
O270        O  0.22066235  0.29654029  0.67239302    -0.78000
O271        O  0.18243328  0.41289579  0.63456747    -0.89600
O272        O  0.28178403  0.39270720  0.61041706    -0.75600
O273        O  0.22748444  0.32677127  0.63265618    -0.85100
O274        O  0.19709690  0.36384551  0.60845253    -0.84800
O275        O  0.15372100  0.29390212  0.65393771    -0.71500
O276        O  0.12676619  0.32836995  0.63122486    -0.83600
Zr277      Zr  0.12613694  0.23390056  0.59795659     2.26400
Zr278      Zr  0.18751197  0.26098962  0.64358470     2.06300
Zr279      Zr  0.13102180  0.33243301  0.59729417     2.10000
Zr280      Zr  0.23013980  0.33027059  0.59890578     1.78800
O281        O  0.07154214  0.33668711  0.59638536    -0.92500
O282        O  0.28495653  0.31875638  0.60290782    -0.40300
O283        O  0.16477484  0.29964709  0.58645153    -0.76900
O284        O  0.19226789  0.26417187  0.60955114    -0.95600
O285        O  0.12198374  0.22897093  0.63172278    -0.88900
O286        O  0.09217020  0.26638739  0.60805620    -0.91700
C287        C  0.28674043  0.41684307  0.62378800     1.02000
C288        C  0.16389447  0.42021850  0.62174960     1.15000
C289        C  0.22985701  0.32989090  0.67981451     1.05700
O290        O  0.24822306  0.25926445  0.64630377    -0.93900
O291        O  0.17309717  0.19662990  0.63314684    -0.89600
O292        O  0.13832495  0.18088436  0.60556924    -0.82800
C293        C  0.15542369  0.17353827  0.61916811     1.12400
O294        O  0.06721663  0.28893873  0.66696062    -0.95900
Zr295      Zr  0.08830203  0.26150319  0.64161809     1.88900
O296        O  0.06258226  0.17913892  0.60547156    -0.72500
O297        O  0.15709418  0.21564531  0.67000868    -0.51800
O298        O  0.07894073  0.22622700  0.67137330    -0.96400
O299        O  0.02742832  0.26146473  0.63520480    -0.53700
O300        O  0.04230103  0.19385552  0.63280374    -0.73000
C301        C  0.03811261  0.17051084  0.61910496     0.99300
O302        O  0.13912679  0.20739354  0.56930229    -0.61800
O303        O  0.15924812  0.37344118  0.56926877    -0.56600
O304        O  0.08765087  0.23485601  0.57088196    -0.93300
O305        O  0.09053079  0.29397270  0.57067555    -0.91800
O306        O  0.24657020  0.37362521  0.57157255    -0.92100
O307        O  0.24573938  0.30348566  0.57127927    -0.90900
C308        C  0.07867368  0.25954719  0.56386259     1.18200
H309        H  0.21125771  0.39071344  0.60423749     0.34100
H310        H  0.20486653  0.24985105  0.60506069     0.45000
H311        H  0.06589616  0.25405046  0.60277662     0.38500
H312        H  0.15228414  0.29396542  0.66768484     0.35000
H313        H  0.30783734  0.34234793  0.59753934     0.26800
H314        H  0.17783031  0.21072204  0.67483668     0.32700
H315        H  0.07797315  0.20149822  0.66769686     0.38600
H316        H  0.27522592  0.38529980  0.57000035     0.33100
H317        H  0.16480993  0.35723580  0.56045722     0.31900
H318        H  0.07616009  0.35584118  0.58617607     0.33600
H319        H  0.00883603  0.23499184  0.63028096     0.32600
H320        H  0.22096299  0.27919534  0.56824293     0.36600
H321        H  0.14563544  0.22761607  0.55940518     0.29300
H322        H  0.20629404  0.41108984  0.67358591     0.33600
H323        H  0.04223954  0.26688112  0.67175197     0.36400
H324        H  0.13715333  0.37469687  0.56331021     0.29000
H325        H  0.16432179  0.20837489  0.57175945     0.41900
H326        H  0.25045249  0.24767390  0.63421865     0.31900
H327        H  0.28987471  0.32074237  0.61676729     0.39600
H328        H  0.03325074  0.27907202  0.62414665     0.31400
H329        H  0.15376119  0.23118968  0.68012484     0.31500
H330        H  0.16800710  0.37148364  0.67847701     0.31700
Zr331      Zr  0.80363140  0.16329957  0.36353271     2.17500
O332        O  0.81607376  0.20940774  0.33767199    -0.50600
O333        O  0.73542610  0.14638148  0.36803984    -0.73800
O334        O  0.78276811  0.13148125  0.33238943    -0.80600
O335        O  0.85067600  0.24956173  0.39766596    -0.82400
O336        O  0.78722997  0.07624691  0.33272314    -0.78000
O337        O  0.81550087  0.22874545  0.37038667    -0.89600
O338        O  0.71197657  0.10750516  0.39413639    -0.75600
O339        O  0.76867073  0.09621576  0.37297121    -0.85100
O340        O  0.79619264  0.16326763  0.39715799    -0.84800
O341        O  0.84528646  0.13790909  0.35407351    -0.71500
O342        O  0.86885753  0.19929628  0.37658835    -0.83600
Zr343      Zr  0.86667036  0.10465330  0.41087007     2.26400
Zr344      Zr  0.81029152  0.07086837  0.36408958     2.06300
Zr345      Zr  0.86067528  0.19787962  0.41031950     2.10000
Zr346      Zr  0.76242323  0.09654470  0.40668444     1.78800
O347        O  0.91983986  0.26156749  0.41334491    -0.92500
O348        O  0.70831237  0.03046142  0.40070835    -0.40300
O349        O  0.82633631  0.13103789  0.42078567    -0.76900
O350        O  0.80171819  0.06881235  0.39790545    -0.95600
O351        O  0.87454395  0.10506422  0.37732120    -0.88900
O352        O  0.90130347  0.17169720  0.40130270    -0.91700
C353        C  0.70830815  0.12631090  0.38021655     1.02000
C354        C  0.83342070  0.25456762  0.38336188     1.15000
C355        C  0.78037187  0.10108974  0.32422913     1.05700
O356        O  0.74820936  0.01011626  0.36024500    -0.93900
O357        O  0.81938767  0.01889371  0.37670726    -0.89600
O358        O  0.85514884  0.03920743  0.40397893    -0.82800
C359        C  0.83654692  0.01367196  0.39095897     1.12400
O360        O  0.92415363  0.21386385  0.34010597    -0.95900
Zr361      Zr  0.90897170  0.17187413  0.36795572     1.88900
O362        O  0.93099746  0.11379582  0.40485049    -0.72500
O363        O  0.84347607  0.05188938  0.34081293    -0.51800
O364        O  0.93041052  0.14790472  0.34126673    -0.96400
O365        O  0.96628651  0.23570992  0.37441265    -0.53700
O366        O  0.95630302  0.15464943  0.37954528    -0.73000
C367        C  0.95816137  0.13305124  0.39268670     0.99300
O368        O  0.85077213  0.06448497  0.43950735    -0.61800
O369        O  0.82826346  0.21091377  0.43645640    -0.56600
O370        O  0.90146672  0.14374429  0.43863079    -0.93300
O371        O  0.89750747  0.19940980  0.43845490    -0.91800
O372        O  0.74197178  0.12315663  0.43263090    -0.92100
O373        O  0.74360174  0.05578038  0.43511055    -0.90900
C374        C  0.90896835  0.17690062  0.44574228     1.18200
H375        H  0.78153687  0.17582810  0.40062196     0.34100
H376        H  0.78856546  0.04195083  0.40246430     0.45000
H377        H  0.92688471  0.18593107  0.40726803     0.38500
H378        H  0.84948844  0.13999889  0.34045276     0.35000
H379        H  0.68525718  0.02980030  0.40668255     0.26800
H380        H  0.82219249  0.02857592  0.33439011     0.32700
H381        H  0.92296020  0.12068132  0.34474155     0.38600
H382        H  0.71305025  0.10677466  0.43295975     0.33100
H383        H  0.80649308  0.21277879  0.43052262     0.31900
H384        H  0.91416757  0.27463676  0.42388294     0.33600
H385        H  0.98096223  0.23092757  0.38446788     0.32600
H386        H  0.76646731  0.06919540  0.44369769     0.36600
H387        H  0.84298724  0.07782235  0.44902028     0.29300
H388        H  0.79050895  0.20023581  0.33133700     0.33600
H389        H  0.95181339  0.22263954  0.33696815     0.36400
H390        H  0.81526169  0.18616118  0.44380752     0.29000
H391        H  0.82596133  0.04015259  0.43653940     0.41900
H392        H  0.74153090  0.99858419  0.37315083     0.31900
H393        H  0.70328685  0.02977286  0.38689255     0.39600
H394        H  0.95573448  0.25084287  0.38080187     0.31400
H395        H  0.85347933  0.07282543  0.33106391     0.31500
H396        H  0.83224794  0.20501929  0.32831886     0.31700
Zr397      Zr  0.73468379  0.82688983  0.90765431     2.17500
O398        O  0.76609395  0.86971450  0.93483018    -0.50600
O399        O  0.78780427  0.81511848  0.90041883    -0.73800
O400        O  0.73260521  0.78967924  0.93601577    -0.80600
O401        O  0.76472796  0.91310379  0.87420075    -0.82400
O402        O  0.67436157  0.73231035  0.93635192    -0.78000
O403        O  0.78530191  0.89379789  0.90012440    -0.89600
O404        O  0.76985668  0.77498427  0.87467027    -0.75600
O405        O  0.70110894  0.75950470  0.89880924    -0.85100
O406        O  0.73791634  0.82540367  0.87381173    -0.84800
O407        O  0.66937666  0.80028732  0.91979469    -0.71500
O408        O  0.70417850  0.86226910  0.89568056    -0.83600
Zr409      Zr  0.60666142  0.76677045  0.86494979     2.26400
Zr410      Zr  0.63527944  0.73298288  0.90977737     2.06300
Zr411      Zr  0.70564751  0.85848188  0.86169215     2.10000
Zr412      Zr  0.70397753  0.75816129  0.86518609     1.78800
O413        O  0.70608249  0.91902363  0.85410447    -0.92500
O414        O  0.69797101  0.69479644  0.87230229    -0.40300
O415        O  0.67153224  0.79110449  0.85289967    -0.76900
O416        O  0.63748373  0.73070775  0.87581546    -0.95600
O417        O  0.60383863  0.76777978  0.89870915    -0.88900
O418        O  0.64081009  0.83431791  0.87351367    -0.91700
C419        C  0.79427638  0.79581908  0.88767935     1.02000
C420        C  0.78909893  0.91936190  0.88764813     1.15000
C421        C  0.70829976  0.75608437  0.94326952     1.05700
O422        O  0.63180742  0.66953763  0.91082154    -0.93900
O423        O  0.57119311  0.68020814  0.89976539    -0.89600
O424        O  0.55412383  0.70223127  0.87373047    -0.82800
C425        C  0.54741308  0.67605072  0.88628992     1.12400
O426        O  0.67094796  0.87834216  0.93437845    -0.95900
Zr427      Zr  0.63899204  0.83515850  0.90743510     1.88900
O428        O  0.55753818  0.78568235  0.87131516    -0.72500
O429        O  0.59480684  0.72075842  0.93793189    -0.51800
O430        O  0.59872152  0.81215952  0.93593962    -0.96400
O431        O  0.64419432  0.89896793  0.90269357    -0.53700
O432        O  0.57450756  0.82116500  0.89859751    -0.73000
C433        C  0.55115510  0.80383753  0.88476269     0.99300
O434        O  0.56949271  0.72661488  0.83790345    -0.61800
O435        O  0.75333129  0.87074708  0.83670144    -0.56600
O436        O  0.61423265  0.79325536  0.83299879    -0.93300
O437        O  0.67193611  0.85072656  0.83153123    -0.91800
O438        O  0.74244636  0.78258998  0.83619025    -0.92100
O439        O  0.67715983  0.71294398  0.83850568    -0.90900
C440        C  0.63996867  0.82379333  0.82404644     1.18200
H441        H  0.76472763  0.83834745  0.86944744     0.34100
H442        H  0.62289413  0.70382719  0.87146967     0.45000
H443        H  0.62915773  0.84837135  0.86784615     0.38500
H444        H  0.66985016  0.80175538  0.93347525     0.35000
H445        H  0.72244782  0.69678786  0.86741001     0.26800
H446        H  0.56884798  0.71464185  0.93298351     0.32700
H447        H  0.57804262  0.78502408  0.93291146     0.38600
H448        H  0.75869534  0.76992281  0.83580336     0.33100
H449        H  0.75426057  0.89235921  0.82910324     0.31900
H450        H  0.70405431  0.92957290  0.86654653     0.33600
H451        H  0.63005540  0.89660383  0.89069668     0.32600
H452        H  0.64919335  0.70554053  0.83800881     0.36600
H453        H  0.57070315  0.70214371  0.83879649     0.29300
H454        H  0.78662921  0.86390802  0.93903226     0.33600
H455        H  0.69740537  0.88133885  0.93480794     0.36400
H456        H  0.77910576  0.88279223  0.84312587     0.29000
H457        H  0.54176736  0.71868768  0.84034876     0.41900
H458        H  0.61670465  0.65679428  0.92248313     0.31900
H459        H  0.70037296  0.69439569  0.88629248     0.39600
H460        H  0.67209762  0.91691628  0.89957685     0.31400
H461        H  0.59062107  0.69546842  0.94297507     0.31500
H462        H  0.74627691  0.85949455  0.94510477     0.31700
Zr463      Zr  0.86188903  0.69901898  0.09715135     2.17500
O464        O  0.90230993  0.72140062  0.06862159    -0.50600
O465        O  0.85205176  0.75427908  0.10273404    -0.73800
O466        O  0.82191221  0.69573113  0.07017879    -0.80600
O467        O  0.95096009  0.73501975  0.12884749    -0.82400
O468        O  0.76660397  0.63598187  0.06982166    -0.78000
O469        O  0.92761891  0.75267453  0.10339266    -0.89600
O470        O  0.81152167  0.73850794  0.12810436    -0.75600
O471        O  0.79516936  0.66706978  0.10686407    -0.85100
O472        O  0.86300654  0.70695512  0.13070274    -0.84800
O473        O  0.83469873  0.63197624  0.08718651    -0.71500
O474        O  0.89793333  0.66965051  0.10945528    -0.83600
Zr475      Zr  0.80449367  0.57777779  0.14409630     2.26400
Zr476      Zr  0.76810805  0.59994642  0.09792804     2.06300
Zr477      Zr  0.89763841  0.67676237  0.14314419     2.10000
Zr478      Zr  0.79635987  0.67465329  0.14028854     1.78800
O479        O  0.95654972  0.67253772  0.14812426    -0.92500
O480        O  0.73183366  0.66538054  0.13306048    -0.40300
O481        O  0.83104716  0.64475034  0.15364820    -0.76900
O482        O  0.76792801  0.60690785  0.13177370    -0.95600
O483        O  0.80314186  0.56999855  0.11050870    -0.88900
O484        O  0.87110913  0.60983400  0.13419218    -0.91700
C485        C  0.83251176  0.76205758  0.11482343     1.02000
C486        C  0.95472146  0.75842440  0.11527063     1.15000
C487        C  0.78893830  0.67045839  0.06286076     1.05700
O488        O  0.70366354  0.59412484  0.09663291    -0.93900
O489        O  0.71846547  0.53607848  0.10993127    -0.89600
O490        O  0.74208596  0.52105206  0.13609883    -0.82800
C491        C  0.71567001  0.51278985  0.12343471     1.12400
O492        O  0.90888778  0.62659288  0.07181177    -0.95900
Zr493      Zr  0.86957588  0.60219491  0.10062782     1.88900
O494        O  0.82059113  0.52612631  0.14013789    -0.72500
O495        O  0.75375626  0.55529938  0.07131619    -0.51800
O496        O  0.84144484  0.55297059  0.07562371    -0.96400
O497        O  0.93564753  0.61311992  0.10513394    -0.53700
O498        O  0.85920567  0.54093827  0.11395555    -0.73000
C499        C  0.84063954  0.51886683  0.12811307     0.99300
O500        O  0.75950558  0.55017983  0.17098462    -0.61800
O501        O  0.91629211  0.72849686  0.16674907    -0.56600
O502        O  0.83930038  0.58693682  0.17400722    -0.93300
O503        O  0.89288912  0.64790880  0.17410076    -0.91800
O504        O  0.81942058  0.71904949  0.16737256    -0.92100
O505        O  0.75376723  0.65113665  0.16802709    -0.90900
C506        C  0.86943883  0.61515152  0.18215312     1.18200
H507        H  0.87625074  0.73434340  0.13425620     0.34100
H508        H  0.74147038  0.59292851  0.13648679     0.45000
H509        H  0.88540092  0.59890265  0.14031439     0.38500
H510        H  0.83536313  0.63074199  0.07353389     0.35000
H511        H  0.72993314  0.68530037  0.14084353     0.26800
H512        H  0.75427924  0.53240694  0.07680278     0.32700
H513        H  0.83183890  0.56445656  0.06598305     0.38600
H514        H  0.83017489  0.70736784  0.17628920     0.33100
H515        H  0.93845564  0.72925680  0.17372924     0.31900
H516        H  0.97544428  0.69780084  0.15410941     0.33600
H517        H  0.93415560  0.59784443  0.11659130     0.32600
H518        H  0.75856319  0.63085090  0.17361960     0.36600
H519        H  0.77154978  0.56897998  0.18159288     0.29300
H520        H  0.90011298  0.74395115  0.06397405     0.33600
H521        H  0.91658936  0.60692393  0.06855340     0.36400
H522        H  0.92824187  0.75343352  0.15954096     0.29000
H523        H  0.73657898  0.55273745  0.16744231     0.41900
H524        H  0.70889699  0.62127282  0.09488021     0.31900
H525        H  0.73391054  0.67484583  0.11984411     0.39600
H526        H  0.95132659  0.64084458  0.10918958     0.31400
H527        H  0.72576539  0.54545845  0.06845781     0.31500
H528        H  0.88821582  0.70047628  0.05908087     0.31700
Zr529      Zr  0.27650765  0.10073140  0.10250784     2.17500
O530        O  0.24856510  0.11595942  0.07513473    -0.50600
O531        O  0.22167021  0.03646923  0.10924704    -0.73800
O532        O  0.27673548  0.06545118  0.07405178    -0.80600
O533        O  0.24587464  0.15604076  0.13623074    -0.82400
O534        O  0.33521050  0.06746525  0.07274603    -0.78000
O535        O  0.22654381  0.11741322  0.10994958    -0.89600
O536        O  0.23675805  0.01124956  0.13471192    -0.75600
O537        O  0.30620607  0.06356892  0.11179296    -0.85100
O538        O  0.27175175  0.09588089  0.13625426    -0.84800
O539        O  0.34247570  0.13734925  0.09099738    -0.71500
O540        O  0.30973402  0.16696849  0.11397444    -0.83600
Zr541      Zr  0.40240386  0.16139575  0.14660600     2.26400
Zr542      Zr  0.37245839  0.10049629  0.10114906     2.06300
Zr543      Zr  0.30625615  0.16160996  0.14784227     2.10000
Zr544      Zr  0.30198720  0.05928760  0.14546359     1.78800
O545        O  0.31618930  0.22754188  0.15106828    -0.92500
O546        O  0.30581002  0.00024253  0.13987310    -0.40300
O547        O  0.33617720  0.12466662  0.15763763    -0.76900
O548        O  0.36900566  0.09483642  0.13512691    -0.95600
O549        O  0.40662846  0.16612371  0.11292814    -0.88900
O550        O  0.37262215  0.19867920  0.13739951    -0.91700
C551        C  0.21352192  0.00925407  0.12142741     1.02000
C552        C  0.22183845  0.13820891  0.12259963     1.15000
C553        C  0.30127220  0.05766804  0.06593956     1.05700
O554        O  0.36807872  0.03659065  0.10077271    -0.93900
O555        O  0.43725151  0.11334266  0.11016833    -0.89600
O556        O  0.45336074  0.14650965  0.13814917    -0.82800
C557        C  0.46054937  0.13002103  0.12421307     1.12400
O558        O  0.35394696  0.21771257  0.07424055    -0.95900
Zr559      Zr  0.37641381  0.20253801  0.10362191     1.88900
O560        O  0.45682192  0.22704855  0.14031438    -0.72500
O561        O  0.41722956  0.12581453  0.07423687    -0.51800
O562        O  0.42362818  0.21787426  0.07805697    -0.96400
O563        O  0.36760250  0.25918192  0.10738899    -0.53700
O564        O  0.43938507  0.25206345  0.11554112    -0.73000
C565        C  0.46341009  0.25444490  0.12843336     0.99300
O566        O  0.43311704  0.15191426  0.17459785    -0.61800
O567        O  0.25941536  0.13728584  0.17400819    -0.56600
O568        O  0.39560847  0.18510361  0.17762595    -0.93300
O569        O  0.33794541  0.18487825  0.17825759    -0.91800
O570        O  0.26044960  0.04547465  0.17334097    -0.92100
O571        O  0.32711906  0.04237197  0.17336783    -0.90900
C572        C  0.36968120  0.19040674  0.18606979     1.18200
H573        H  0.24478207  0.08307080  0.14042315     0.34100
H574        H  0.38229878  0.08118156  0.13938666     0.45000
H575        H  0.38546558  0.22443344  0.14325069     0.38500
H576        H  0.34256609  0.13886860  0.07733088     0.35000
H577        H  0.28576899  0.98025334  0.14839616     0.26800
H578        H  0.41487140  0.10227795  0.06790365     0.32700
H579        H  0.44035811  0.24680184  0.07819201     0.38600
H580        H  0.24555505  0.01649889  0.17430631     0.33100
H581        H  0.25354138  0.15853454  0.17656612     0.31900
H582        H  0.30301699  0.22697930  0.16314161     0.33600
H583        H  0.38517843  0.27447455  0.11796912     0.32600
H584        H  0.35567400  0.05463766  0.17118304     0.36600
H585        H  0.43015311  0.12556053  0.17313779     0.29300
H586        H  0.22649624  0.09046697  0.07086653     0.33600
H587        H  0.37455842  0.24457869  0.07070701     0.36400
H588        H  0.23488012  0.11574441  0.16858920     0.29000
H589        H  0.46153304  0.17058212  0.17321095     0.41900
H590        H  0.39198335  0.04099246  0.09402398     0.31900
H591        H  0.29504168  0.99161193  0.12693655     0.39600
H592        H  0.34088705  0.24831991  0.11267930     0.31400
H593        H  0.40500971  0.13594911  0.06529794     0.31500
H594        H  0.26847311  0.12420457  0.06494247     0.31700
Zr595      Zr  0.15178366  0.85358481  0.90833943     2.17500
O596        O  0.10823653  0.83571757  0.93570290    -0.50600
O597        O  0.15901647  0.91675241  0.90044332    -0.73800
O598        O  0.18840491  0.89176346  0.93592773    -0.80600
O599        O  0.06740964  0.79983063  0.87410220    -0.82400
O600        O  0.24742164  0.89444232  0.93625156    -0.73200
O601        O  0.08493710  0.83686725  0.90088607    -0.89600
O602        O  0.19674707  0.93878849  0.87393992    -0.75600
O603        O  0.21892266  0.89021618  0.89929207    -0.85100
O604        O  0.15231311  0.85697429  0.87452611    -0.84800
O605        O  0.18176586  0.81799379  0.92059757    -0.71500
O606        O  0.11903115  0.78708564  0.89731303    -0.83600
Zr607      Zr  0.21681350  0.79107479  0.86570156     2.26400
Zr608      Zr  0.24876069  0.85405844  0.91040041     2.06300
Zr609      Zr  0.12098187  0.79101571  0.86340886     2.10000
Zr610      Zr  0.21940214  0.89368567  0.86569244     1.78800
O611        O  0.06420654  0.72515677  0.86266754    -0.92500
O612        O  0.27861764  0.95484477  0.87375086    -0.40300
O613        O  0.18806962  0.82792410  0.85380007    -0.76900
O614        O  0.25060743  0.85822543  0.87638582    -0.95600
O615        O  0.21690263  0.78769147  0.89943598    -0.88900
O616        O  0.14986758  0.75424554  0.87483210    -0.91700
C617        C  0.17560821  0.94170267  0.88698128     1.02000
C618        C  0.06029810  0.81706664  0.88771089     1.15000
C619        C  0.22252919  0.90326476  0.94302328     1.05700
O620        O  0.31085030  0.91544737  0.91206097    -0.93900
O621        O  0.30207286  0.84319251  0.90097004    -0.89600
O622        O  0.28237203  0.80675845  0.87405288    -0.82800
C623        C  0.30737532  0.82486487  0.88722179     1.12400
O624        O  0.10695792  0.73799583  0.93603331    -0.95900
Zr625      Zr  0.15005553  0.75218945  0.90870418     1.88900
O626        O  0.20294736  0.72443567  0.87222342    -0.72500
O627        O  0.26244373  0.82726985  0.93870383    -0.51800
O628        O  0.17789253  0.73905302  0.93674720    -0.96400
O629        O  0.08745912  0.69230019  0.90364480    -0.53700
O630        O  0.16707331  0.70384653  0.89926943    -0.73000
C631        C  0.18523617  0.69899597  0.88541327     0.99300
O632        O  0.25661225  0.79455937  0.83838452    -0.61800
O633        O  0.09718369  0.81231121  0.83652851    -0.56600
O634        O  0.18894301  0.76985132  0.83426353    -0.93300
O635        O  0.12963242  0.76625637  0.83326017    -0.91800
O636        O  0.19816205  0.90800359  0.83577882    -0.92100
O637        O  0.26793548  0.91406017  0.84042536    -0.90900
C638        C  0.15733919  0.76274011  0.82568680     1.18200
H639        H  0.13790422  0.86926741  0.86997078     0.34100
H640        H  0.27746501  0.87163421  0.87194934     0.45000
H641        H  0.13709873  0.72827423  0.86924057     0.38500
H642        H  0.18044568  0.81730979  0.93425955     0.35000
H643        H  0.27785426  0.97483202  0.86550240     0.26800
H644        H  0.28855945  0.84822126  0.94297285     0.32700
H645        H  0.16321060  0.71015138  0.93816092     0.38600
H646        H  0.17107939  0.90231310  0.83819625     0.33100
H647        H  0.06972725  0.79112901  0.83468496     0.31900
H648        H  0.04669423  0.72643037  0.85296743     0.33600
H649        H  0.09085820  0.68039079  0.89193617     0.32600
H650        H  0.26990189  0.89046315  0.83763921     0.36600
H651        H  0.28055232  0.82074090  0.83893339     0.29300
H652        H  0.11125818  0.86072489  0.94047991     0.33600
H653        H  0.09911757  0.71089153  0.93995284     0.36400
H654        H  0.09511079  0.83489894  0.84122167     0.29000
H655        H  0.26554688  0.77555478  0.84093786     0.41900
H656        H  0.31654429  0.92489652  0.89877173     0.31900
H657        H  0.27396369  0.96141611  0.88671107     0.39600
H658        H  0.06920358  0.70152100  0.89994368     0.31400
H659        H  0.24411505  0.82664435  0.94849326     0.31500
H660        H  0.12036420  0.82726560  0.94556636     0.31700
Zr661      Zr  0.12070643  0.24384441  0.90270181     2.17500
O662        O  0.13207987  0.21112216  0.92933210    -0.50600
O663        O  0.05414465  0.19359664  0.89640333    -0.73800
O664        O  0.08939402  0.24811807  0.93182041    -0.80600
O665        O  0.16641175  0.20594788  0.86692496    -0.82400
O666        O  0.09759458  0.30925715  0.93391642    -0.78000
O667        O  0.13163613  0.19000528  0.89453500    -0.89600
O668        O  0.03127186  0.21285553  0.87143416    -0.75600
O669        O  0.09009038  0.28119746  0.89530850    -0.85100
O670        O  0.11264213  0.24049401  0.86905964    -0.84800
O671        O  0.16469740  0.30845769  0.91438850    -0.71500
O672        O  0.18483199  0.27026249  0.88929852    -0.83600
Zr673      Zr  0.19117423  0.37128399  0.85912592     2.26400
Zr674      Zr  0.13455108  0.34627222  0.90606371     2.06300
Zr675      Zr  0.17650130  0.26846559  0.85557065     2.10000
Zr676      Zr  0.08255778  0.27808172  0.86174526     1.78800
O677        O  0.23565695  0.26540179  0.84945670    -0.92500
O678        O  0.02783142  0.28759924  0.86990230    -0.40300
O679        O  0.14651429  0.30636115  0.84775177    -0.76900
O680        O  0.12613594  0.34399747  0.87226079    -0.95600
O681        O  0.19870738  0.37367066  0.89276804    -0.88900
O682        O  0.22094769  0.33321088  0.86644627    -0.91700
C683        C  0.02763520  0.18804801  0.88428501     1.02000
C684        C  0.14948803  0.18309949  0.88111127     1.15000
C685        C  0.08461866  0.27430800  0.94034010     1.05700
O686        O  0.07821127  0.35557294  0.90914316    -0.93900
O687        O  0.15413678  0.41346343  0.89720517    -0.89600
O688        O  0.18705907  0.42808951  0.86908860    -0.82800
C689        C  0.17234597  0.43672589  0.88328773     1.12400
O690        O  0.24445627  0.30348446  0.92523701    -0.95900
Zr691      Zr  0.22806808  0.33532098  0.90004842     1.88900
O692        O  0.26025352  0.42036063  0.86468710    -0.72500
O693        O  0.16726728  0.38622585  0.93386413    -0.51800
O694        O  0.24925364  0.37494642  0.92883798    -0.96400
O695        O  0.28052349  0.32261206  0.89130027    -0.53700
O696        O  0.27991198  0.39846058  0.88981246    -0.73000
C697        C  0.28600961  0.42409577  0.87706876     0.99300
O698        O  0.17471518  0.40170797  0.83317029    -0.61800
O699        O  0.13778496  0.22096775  0.83110235    -0.56600
O700        O  0.21575438  0.36482350  0.82822128    -0.93300
O701        O  0.20494323  0.30247423  0.82577328    -0.91800
O702        O  0.06255877  0.23890140  0.83283301    -0.92100
O703        O  0.06703795  0.30966683  0.83613070    -0.90900
C704        C  0.21668578  0.33699595  0.81908386     1.18200
H705        H  0.09705766  0.21382905  0.86472803     0.34100
H706        H  0.11513020  0.36003375  0.86863970     0.45000
H707        H  0.24597956  0.34351258  0.86011909     0.38500
H708        H  0.16723111  0.30780461  0.92797293     0.35000
H709        H  0.00610728  0.26910394  0.86160612     0.26800
H710        H  0.14687817  0.38965326  0.94033309     0.32700
H711        H  0.24462613  0.39701252  0.92626333     0.38600
H712        H  0.03380027  0.22759543  0.83223028     0.33100
H713        H  0.13099999  0.23577424  0.82197596     0.31900
H714        H  0.22714857  0.24254179  0.84094211     0.33600
H715        H  0.29500578  0.34121594  0.88089819     0.32600
H716        H  0.09222365  0.32576905  0.82942661     0.36600
H717        H  0.16296049  0.38130477  0.82321464     0.29300
H718        H  0.10571294  0.19146749  0.93397574     0.33600
H719        H  0.27220862  0.32194020  0.92846164     0.36400
H720        H  0.15671719  0.21595512  0.82420269     0.29000
H721        H  0.15210709  0.40371126  0.83784389     0.41900
H722        H  0.06795142  0.35288987  0.89606264     0.31900
H723        H  0.01985880  0.27641504  0.88281928     0.39600
H724        H  0.26700366  0.29657408  0.88507931     0.31400
H725        H  0.17173493  0.36888098  0.94241454     0.31500
H726        H  0.14340348  0.23102700  0.93955041     0.31700
Zr727      Zr  0.88284704  0.11947735  0.09709146     2.17500
O728        O  0.87325362  0.07887183  0.06920734    -0.50600
O729        O  0.94836945  0.13256220  0.10432336    -0.73800
O730        O  0.91980700  0.15999902  0.07005084    -0.80600
O731        O  0.83642804  0.03296726  0.13097411    -0.82400
O732        O  0.91333802  0.21418296  0.06947546    -0.78000
O733        O  0.87003728  0.05323105  0.10311194    -0.89600
O734        O  0.97163765  0.17547821  0.12898375    -0.75600
O735        O  0.91476959  0.18635249  0.10688444    -0.85100
O736        O  0.88768639  0.11876680  0.13083025    -0.84800
O737        O  0.84171940  0.14421477  0.08584236    -0.71500
O738        O  0.81659391  0.08172920  0.10846319    -0.83600
Zr739      Zr  0.81300302  0.17407839  0.14197908     2.26400
Zr740      Zr  0.87326910  0.21093819  0.09661169     2.06300
Zr741      Zr  0.82206683  0.08257686  0.14238588     2.10000
Zr742      Zr  0.91922459  0.18542673  0.14051439     1.78800
O743        O  0.75902773  0.02221559  0.14406313    -0.92500
O744        O  0.97269171  0.25260980  0.13672153    -0.40300
O745        O  0.85405912  0.14930661  0.15282571    -0.76900
O746        O  0.87921141  0.21176892  0.13051028    -0.95600
O747        O  0.80764794  0.17483004  0.10832004    -0.88900
O748        O  0.78030940  0.10708845  0.13229358    -0.91700
C749        C  0.97517998  0.15413832  0.11624287     1.02000
C750        C  0.85339710  0.02807268  0.11652649     1.15000
C751        C  0.92670122  0.19280043  0.06275092     1.05700
O752        O  0.92943845  0.27676907  0.09368118    -0.93900
O753        O  0.86057903  0.26163932  0.10849833    -0.89600
O754        O  0.82849024  0.24100560  0.13665473    -0.82800
C755        C  0.84479610  0.26657038  0.12344987     1.12400
O756        O  0.76379969  0.07089930  0.06911512    -0.95900
Zr757      Zr  0.77638975  0.10827795  0.09846154     1.88900
O758        O  0.74574921  0.15738144  0.13558599    -0.72500
O759        O  0.83966492  0.22144376  0.07018964    -0.51800
O760        O  0.75891987  0.13783828  0.07257133    -0.96400
O761        O  0.72076620  0.04191399  0.10156293    -0.53700
O762        O  0.72326041  0.11658245  0.11014464    -0.73000
C763        C  0.71914990  0.13648597  0.12342175     0.99300
O764        O  0.81304587  0.21741702  0.16675450    -0.61800
O765        O  0.84823029  0.06237068  0.16869374    -0.56600
O766        O  0.79555520  0.14352489  0.17332956    -0.93300
O767        O  0.79847988  0.08746309  0.17351477    -0.91800
O768        O  0.93809009  0.16140283  0.16811598    -0.92100
O769        O  0.93162529  0.22494353  0.16902628    -0.90900
C770        C  0.79227758  0.11298897  0.18165340     1.18200
H771        H  0.90242692  0.10645822  0.13485500     0.34100
H772        H  0.89154263  0.23841190  0.13520273     0.45000
H773        H  0.75466517  0.09227511  0.13814575     0.38500
H774        H  0.84064456  0.14328081  0.07220303     0.35000
H775        H  0.99436077  0.25401928  0.14443572     0.26800
H776        H  0.85959725  0.24668943  0.06455464     0.32700
H777        H  0.75143581  0.15574601  0.07871965     0.38600
H778        H  0.91305243  0.14351245  0.17456850     0.33100
H779        H  0.83094964  0.03357746  0.16960237     0.31900
H780        H  0.75978419  0.01001521  0.15624480     0.33600
H781        H  0.70911708  0.04133195  0.11410359     0.32600
H782        H  0.90743032  0.22628977  0.17086739     0.36600
H783        H  0.78776362  0.20272336  0.17356764     0.29300
H784        H  0.89992911  0.08654579  0.06467555     0.33600
H785        H  0.73702658  0.06408560  0.06514592     0.36400
H786        H  0.87360023  0.06606594  0.16412214     0.29000
H787        H  0.83332926  0.22043748  0.17597387     0.41900
H788        H  0.94272090  0.28199581  0.10615569     0.31900
H789        H  0.98145544  0.25409749  0.12341573     0.39600
H790        H  0.73260928  0.02509267  0.10319596     0.31400
H791        H  0.83603353  0.20150857  0.06061052     0.31500
H792        H  0.86232036  0.08863238  0.05935660     0.31700
C793        C  0.00400165  0.20978494  0.02555640     0.13400
C794        C  0.99704709  0.23102846  0.01154078     0.00300
C795        C  0.96753234  0.24050201  0.01466472     0.15300
C796        C  0.94522298  0.22876668  0.03141717     0.24700
C797        C  0.95153818  0.20672712  0.04532301    -0.41600
C798        C  0.98141094  0.19757715  0.04221069     0.31800
C799        C  0.01983035  0.24231249  0.99346600     0.00400
F800        F  0.95938376  0.26001020  0.00116381    -0.13900
F801        F  0.98925332  0.17731824  0.05542967    -0.14400
C802        C  0.01764780  0.21330776  0.98108961     0.15300
C803        C  0.03853932  0.22359633  0.96393603     0.24700
C804        C  0.06259663  0.26336594  0.95876065    -0.41500
C805        C  0.06518335  0.29241928  0.97142819     0.31700
C806        C  0.04373527  0.28194984  0.98845681     0.13400
F807        F  0.99445775  0.17476290  0.98543569    -0.13900
F808        F  0.08909403  0.33110114  0.96760204    -0.14400
F809        F  0.03450312  0.19435818  0.95227650    -0.16700
F810        F  0.04687835  0.31064569  0.00026103    -0.15300
F811        F  0.03299450  0.20111060  0.02315755    -0.15300
F812        F  0.91639030  0.23771479  0.03367346    -0.16700
C813        C  0.15510595  0.59253323  0.89422158     0.13400
C814        C  0.18363584  0.58878132  0.88407910     0.00300
C815        C  0.21264720  0.62124062  0.87405544     0.15300
C816        C  0.21347683  0.65721683  0.87444949     0.24700
C817        C  0.18492391  0.66114640  0.88472050    -0.41600
C818        C  0.15562292  0.62818321  0.89453801     0.31800
C819        C  0.18242791  0.55064555  0.88379826     0.00400
F820        F  0.24046684  0.61818693  0.86407450    -0.13900
F821        F  0.12667110  0.62995121  0.90413940    -0.14400
C822        C  0.17690330  0.53048662  0.86661115     0.15300
C823        C  0.17413975  0.49368900  0.86641493     0.24700
C824        C  0.17627810  0.47611955  0.88348055    -0.41500
C825        C  0.18160204  0.49632924  0.90070745     0.31700
C826        C  0.18496067  0.53340496  0.90083293     0.13400
F827        F  0.17277581  0.54586444  0.85008489    -0.13900
F828        F  0.18417486  0.48048384  0.91740699    -0.14400
F829        F  0.16775379  0.47458731  0.84959420    -0.16700
F830        F  0.19087483  0.55263721  0.91759845    -0.15300
F831        F  0.12595303  0.56120167  0.90344794    -0.15300
F832        F  0.24261705  0.68824119  0.86507005    -0.16700
C833        C  0.16641103  0.02668570  0.86783255     0.13400
C834        C  0.15913770  0.04162312  0.88447551     0.00300
C835        C  0.15584456  0.02276406  0.90188722     0.15300
C836        C  0.16077133  0.99002529  0.90273015     0.24700
C837        C  0.16941253  0.97576596  0.88615015    -0.41600
C838        C  0.17164730  0.99418624  0.86863479     0.31800
C839        C  0.15631770  0.07764842  0.88369661     0.00400
F840        F  0.14894890  0.03674465  0.91818336    -0.13900
F841        F  0.17811998  0.98034415  0.85216930    -0.14400
C842        C  0.12220431  0.07729571  0.88977676     0.15300
C843        C  0.11976595  0.11153166  0.88893931     0.24700
C844        C  0.15157520  0.14670086  0.88211997    -0.41500
C845        C  0.18581611  0.14697171  0.87620657     0.31700
C846        C  0.18806088  0.11272710  0.87689281     0.13400
F847        F  0.09097250  0.04356000  0.89614341    -0.13900
F848        F  0.21765451  0.18073335  0.87030074    -0.14400
F849        F  0.08595820  0.11002224  0.89428985    -0.16700
F850        F  0.22162728  0.11399208  0.87127157    -0.15300
F851        F  0.16800568  0.04339544  0.85072557    -0.15300
F852        F  0.15818269  0.97304525  0.91987258    -0.16700
C853        C  0.24944958  0.01517704  0.01878436     0.13400
C854        C  0.26761397  0.99421919  0.01264194     0.00300
C855        C  0.29718352  0.99460120  0.02393696     0.15300
C856        C  0.30846151  0.01555342  0.04103831     0.24700
C857        C  0.28979410  0.03603484  0.04749637    -0.41600
C858        C  0.26023699  0.03571075  0.03602666     0.31800
C859        C  0.25580510  0.97198449  0.99447173     0.00400
F860        F  0.31470944  0.97395778  0.01857592    -0.13900
F861        F  0.24241345  0.05618070  0.04114456    -0.14400
C862        C  0.28367902  0.97970190  0.98017457     0.15300
C863        C  0.27286412  0.95775970  0.96334804     0.24700
C864        C  0.23379252  0.92790042  0.96039382    -0.41500
C865        C  0.20573737  0.92094786  0.97450930     0.31700
C866        C  0.21670908  0.94251149  0.99143682     0.13400
F867        F  0.32139638  0.00879343  0.98245827    -0.13900
F868        F  0.16790959  0.89210828  0.97228422    -0.14400
F869        F  0.30051677  0.96620382  0.94980893    -0.16700
F870        F  0.18934238  0.93362107  0.00517477    -0.15300
F871        F  0.22178530  0.01650576  0.00783133    -0.15300
F872        F  0.33733409  0.01516432  0.05137616    -0.16700
C873        C  0.08229620  0.18512501  0.12183475     0.13400
C874        C  0.08176758  0.14991652  0.11795838     0.00300
C875        C  0.04642187  0.11652915  0.11272632     0.15300
C876        C  0.01191985  0.11819412  0.11157889     0.24700
C877        C  0.01221008  0.15331319  0.11577263    -0.41600
C878        C  0.04786102  0.18691630  0.12061757     0.31800
C879        C  0.11814151  0.14801833  0.11913039     0.00400
F880        F  0.04515617  0.08197717  0.10928046    -0.13900
F881        F  0.04949888  0.22168789  0.12385894    -0.14400
C882        C  0.13863505  0.15560923  0.13634907     0.15300
C883        C  0.17234091  0.15249164  0.13752807     0.24700
C884        C  0.18633754  0.14198656  0.12139556    -0.41500
C885        C  0.16614095  0.13545547  0.10403871     0.31700
C886        C  0.13236901  0.13839682  0.10296554     0.13400
F887        F  0.12562623  0.16544505  0.15212071    -0.13900
F888        F  0.17954066  0.12723228  0.08791957    -0.14400
F889        F  0.19074979  0.15911587  0.15457184    -0.16700
F890        F  0.11394795  0.13272724  0.08598366    -0.15300
F891        F  0.11630820  0.21788332  0.12660861    -0.15300
F892        F  0.97800585  0.08503331  0.10709227    -0.16700
C893        C  0.55292472  0.13208531  0.10715669     0.13400
C894        C  0.57158301  0.13387714  0.12439187     0.00300
C895        C  0.55349099  0.13363322  0.14157868     0.15300
C896        C  0.51721968  0.13197087  0.14156305     0.24700
C897        C  0.49847571  0.13065218  0.12428516    -0.41600
C898        C  0.51676200  0.13064885  0.10706003     0.31800
C899        C  0.60939746  0.13471707  0.12444457     0.00400
F900        F  0.57064910  0.13417673  0.15838967    -0.13900
F901        F  0.50021015  0.13028366  0.09008656    -0.14400
C902        C  0.64432154  0.16949988  0.12863746     0.15300
C903        C  0.68010553  0.17004663  0.12859168     0.24700
C904        C  0.68131077  0.13565646  0.12448231    -0.41500
C905        C  0.64614431  0.10085517  0.12041009     0.31700
C906        C  0.61054949  0.10052263  0.12023492     0.13400
F907        F  0.64380514  0.20310149  0.13226564    -0.13900
F908        F  0.64616488  0.06697334  0.11689196    -0.14400
F909        F  0.71367112  0.20447755  0.13181975    -0.16700
F910        F  0.57705000  0.06674740  0.11601563    -0.15300
F911        F  0.57000873  0.13209868  0.09040341    -0.15300
F912        F  0.50006347  0.13069156  0.15847568    -0.16700
C913        C  0.06324987  0.83012136  0.11871715     0.13400
C914        C  0.06476589  0.86581253  0.11475375     0.00300
C915        C  0.03032597  0.86570440  0.10954225     0.15300
C916        C  0.99458670  0.83050445  0.10899010     0.24700
C917        C  0.99281494  0.79490999  0.11364806    -0.41600
C918        C  0.02761489  0.79493062  0.11806149     0.31800
C919        C  0.10213891  0.90313568  0.11656886     0.00400
F920        F  0.03104683  0.89988256  0.10579142    -0.13900
F921        F  0.02714575  0.76079957  0.12161786    -0.14400
C922        C  0.11803255  0.92846264  0.10095844     0.15300
C923        C  0.15401017  0.96310251  0.10257306     0.24700
C924        C  0.17476322  0.97313340  0.11991676    -0.41500
C925        C  0.15807907  0.94812633  0.13569781     0.31700
C926        C  0.12217777  0.91342421  0.13398947     0.13400
F927        F  0.09915848  0.91917157  0.08397666    -0.13900
F928        F  0.17602489  0.95749522  0.15291496    -0.14400
F929        F  0.16887179  0.98623197  0.08696225    -0.16700
F930        F  0.10660338  0.89004059  0.14946610    -0.15300
F931        F  0.09634645  0.82940606  0.12328727    -0.15300
F932        F  0.96149940  0.83150813  0.10482052    -0.16700
C933        C  0.63477461  0.41513938  0.14245234     0.13400
C934        C  0.61129238  0.39912129  0.12629332     0.00300
C935        C  0.62238912  0.42009526  0.10913400     0.15300
C936        C  0.65618606  0.45696727  0.10817966     0.24700
C937        C  0.67968871  0.47360356  0.12443322    -0.41600
C938        C  0.66855697  0.45210476  0.14160088     0.31800
C939        C  0.57365874  0.36193521  0.12761653     0.00400
F940        F  0.60032058  0.40477014  0.09325890    -0.13900
F941        F  0.68948319  0.46730823  0.15778989    -0.14400
C942        C  0.53859401  0.36204472  0.12448671     0.15300
C943        C  0.50276368  0.32716399  0.12522462     0.24700
C944        C  0.50127032  0.29145504  0.12929529    -0.41500
C945        C  0.53639598  0.29142302  0.13285956     0.31700
C946        C  0.57240539  0.32649021  0.13195801     0.13400
F947        F  0.53910716  0.39615708  0.12082467    -0.13900
F948        F  0.53601507  0.25731211  0.13633893    -0.14400
F949        F  0.46940848  0.32837539  0.12208071    -0.16700
F950        F  0.60609305  0.32572834  0.13473024    -0.15300
F951        F  0.62413852  0.39557191  0.15925756    -0.15300
F952        F  0.66592839  0.47613048  0.09126266    -0.16700
C953        C  0.84276040  0.93336381  0.09726972     0.13400
C954        C  0.84690661  0.91600045  0.11390859     0.00300
C955        C  0.85547659  0.93667335  0.13112805     0.15300
C956        C  0.85829156  0.97344284  0.13189012     0.24700
C957        C  0.85322764  0.99052436  0.11535121    -0.41600
C958        C  0.84627913  0.97053489  0.09794720     0.31800
C959        C  0.84218685  0.87628444  0.11345009     0.00400
F960        F  0.86152554  0.92132698  0.14719294    -0.13900
F961        F  0.84127151  0.98623732  0.08174477    -0.14400
C962        C  0.86724377  0.86876725  0.10236418     0.15300
C963        C  0.86391497  0.83168853  0.10256819     0.24700
C964        C  0.83501344  0.80107510  0.11378452    -0.41500
C965        C  0.80946741  0.80878251  0.12464268     0.31700
C966        C  0.81326483  0.84602013  0.12455533     0.13400
F967        F  0.89590585  0.89784248  0.09180723    -0.13900
F968        F  0.78064487  0.78039163  0.13542405    -0.14400
F969        F  0.88981610  0.82633719  0.09214351    -0.16700
F970        F  0.78850649  0.85252814  0.13533123    -0.15300
F971        F  0.83415804  0.91380795  0.08047959    -0.15300
F972        F  0.86658611  0.99264685  0.14877277    -0.16700
C973        C  0.87718605  0.44654118  0.12630385     0.13400
C974        C  0.84369620  0.41168370  0.13180000     0.00300
C975        C  0.80983353  0.41239061  0.13726690     0.15300
C976        C  0.80917040  0.44759505  0.13671212     0.24700
C977        C  0.84229910  0.48241538  0.13046547    -0.41600
C978        C  0.87645515  0.48156864  0.12544879     0.31800
C979        C  0.84329463  0.37424862  0.12996716     0.00400
F980        F  0.77689592  0.37868269  0.14222495    -0.13900
F981        F  0.90907236  0.51456564  0.11951013    -0.14400
C982        C  0.84507924  0.35422706  0.14605116     0.15300
C983        C  0.84609020  0.31941855  0.14397173     0.24700
C984        C  0.84520285  0.30412142  0.12571355    -0.41500
C985        C  0.84372157  0.32463014  0.10965640     0.31700
C986        C  0.84268935  0.35932685  0.11180296     0.13400
F987        F  0.84673417  0.36887407  0.16370811    -0.13900
F988        F  0.84231528  0.31066644  0.09186597    -0.14400
F989        F  0.84906330  0.30135717  0.15979732    -0.16700
F990        F  0.84080361  0.37838916  0.09611389    -0.15300
F991        F  0.91034419  0.44631713  0.12131673    -0.15300
F992        F  0.77542011  0.44713061  0.14113602    -0.16700
C993        C  0.47186246  0.56734799  0.88780576     0.13400
C994        C  0.43841999  0.56684484  0.88030521     0.00300
C995        C  0.44141353  0.60259354  0.87480653     0.15300
C996        C  0.47682397  0.63782477  0.87661017     0.24700
C997        C  0.50985813  0.63850800  0.88468390    -0.41600
C998        C  0.50697433  0.60285348  0.89028573     0.31800
C999        C  0.40011458  0.52952937  0.87892184     0.00400
F1000       F  0.40969156  0.60373029  0.86814794    -0.13900
F1001       F  0.53853682  0.60213061  0.89752019    -0.14400
C1002       C  0.38536054  0.50435654  0.89467608     0.15300
C1003       C  0.34907344  0.46993556  0.89378293     0.24700
C1004       C  0.32542940  0.46030030  0.87731501    -0.41500
C1005       C  0.34010855  0.48562540  0.86152839     0.31700
C1006       C  0.37728754  0.51947418  0.86222698     0.13400
F1007       F  0.40540821  0.51371013  0.91133966    -0.13900
F1008       F  0.31891030  0.47744268  0.84526980    -0.14400
F1009       F  0.33684276  0.44663671  0.90944199    -0.16700
F1010       F  0.39113408  0.54223045  0.84645168    -0.15300
F1011       F  0.47087275  0.53336422  0.89238197    -0.15300
F1012       F  0.47841802  0.67147041  0.87077428    -0.16700
C1013       C  0.89369904  0.00206112  0.89359732     0.13400
C1014       C  0.89066768  0.03423947  0.88722072     0.00300
C1015       C  0.85411568  0.02882814  0.88179425     0.15300
C1016       C  0.82096275  0.99159216  0.88244046     0.24700
C1017       C  0.82385052  0.95900616  0.88848987    -0.41600
C1018       C  0.86049792  0.96461602  0.89421881     0.31800
C1019       C  0.92548135  0.07370211  0.88638743     0.00400
F1020       F  0.85052708  0.05979489  0.87602899    -0.13900
F1021       F  0.86451276  0.93370767  0.89961826    -0.14400
C1022       C  0.93928017  0.09273563  0.86885015     0.15300
C1023       C  0.97177173  0.13060538  0.86813979     0.24700
C1024       C  0.99111851  0.14973566  0.88499103    -0.41500
C1025       C  0.97699405  0.13050080  0.90253035     0.31700
C1026       C  0.94437273  0.09284700  0.90320181     0.13400
F1027       F  0.92182149  0.07417728  0.85240557    -0.13900
F1028       F  0.99453743  0.14832996  0.91907910    -0.14400
F1029       F  0.98524531  0.14782682  0.85095184    -0.16700
F1030       F  0.93086149  0.07516973  0.92029737    -0.15300
F1031       F  0.92901936  0.00681013  0.89870910    -0.15300
F1032       F  0.78592196  0.98750724  0.87727715    -0.16700
C1033       C  0.46678993  0.81563010  0.86762302     0.13400
C1034       C  0.44874286  0.81525345  0.88490931     0.00300
C1035       C  0.46331168  0.80914090  0.90196375     0.15300
C1036       C  0.49590869  0.80413064  0.90178512     0.24700
C1037       C  0.51470924  0.80555412  0.88454015    -0.41600
C1038       C  0.49954997  0.81076847  0.86742490     0.31800
C1039       C  0.41334556  0.81896076  0.88508266     0.00400
F1040       F  0.44532768  0.80702801  0.91874030    -0.13900
F1041       F  0.51709045  0.81231898  0.85059203    -0.14400
C1042       C  0.37947225  0.79075857  0.87580425     0.15300
C1043       C  0.34538054  0.79306889  0.87630776     0.24700
C1044       C  0.34426696  0.82353390  0.88637766    -0.41500
C1045       C  0.37850582  0.85201093  0.89559008     0.31700
C1046       C  0.41282267  0.84979244  0.89486184     0.13400
F1047       F  0.37911117  0.76021129  0.86665849    -0.13900
F1048       F  0.37903729  0.88231046  0.90504839    -0.14400
F1049       F  0.31316696  0.76462533  0.86733490    -0.16700
F1050       F  0.44570195  0.87796416  0.90352322    -0.15300
F1051       F  0.45293196  0.82125072  0.85096437    -0.15300
F1052       F  0.50855149  0.79690276  0.91844217    -0.16700
C1053       C  0.88735231  0.80069903  0.90506381     0.13400
C1054       C  0.90723174  0.80457050  0.88788306     0.00300
C1055       C  0.88942335  0.80512962  0.87064852     0.15300
C1056       C  0.85245653  0.80180391  0.87059802     0.24700
C1057       C  0.83285682  0.79841913  0.88778507    -0.41600
C1058       C  0.85075536  0.79827348  0.90503440     0.31800
C1059       C  0.94637470  0.80783388  0.88792904     0.00400
F1060       F  0.90814440  0.80964266  0.85384493    -0.13900
F1061       F  0.83234488  0.79474863  0.92184486    -0.14400
C1062       C  0.95321463  0.78209170  0.87696849     0.15300
C1063       C  0.99005330  0.78514542  0.87687397     0.24700
C1064       C  0.02096932  0.81374032  0.88803695    -0.41500
C1065       C  0.01378592  0.83921125  0.89923038     0.31700
C1066       C  0.97705007  0.83657390  0.89895793     0.13400
F1067       F  0.92389483  0.75332181  0.86657164    -0.13900
F1068       F  0.04237922  0.86720963  0.91024299    -0.14400
F1069       F  0.99497266  0.75938588  0.86605896    -0.16700
F1070       F  0.97169234  0.86275516  0.90918054    -0.15300
F1071       F  0.90293144  0.79824078  0.92185931    -0.15300
F1072       F  0.83640432  0.80327874  0.85376328    -0.16700
C1073       C  0.72449105  0.69346295  0.97918797     0.13400
C1074       C  0.74063826  0.71928722  0.99466937     0.00300
C1075       C  0.74629485  0.75741658  0.99307250     0.15300
C1076       C  0.73612484  0.76952256  0.97632072     0.24700
C1077       C  0.71995061  0.74369179  0.96084980    -0.41600
C1078       C  0.71400580  0.70544874  0.96249713     0.31800
C1079       C  0.75249436  0.70681581  0.01226242     0.00400
F1080       F  0.76097155  0.78270776  0.00792375    -0.13900
F1081       F  0.69881367  0.67992311  0.94775230    -0.14400
C1082       C  0.79169993  0.72698081  0.01826199     0.15300
C1083       C  0.80348902  0.71477975  0.03439363     0.24700
C1084       C  0.77612116  0.68244397  0.04530690    -0.41500
C1085       C  0.73650178  0.66285906  0.03950392     0.31700
C1086       C  0.72495115  0.67474108  0.02307817     0.13400
F1087       F  0.81890911  0.75839020  0.00829417    -0.13900
F1088       F  0.70860654  0.63297236  0.04999912    -0.14400
F1089       F  0.84202577  0.73465073  0.03913352    -0.16700
F1090       F  0.68656437  0.65560399  0.01802568    -0.15300
F1091       F  0.71971017  0.65687510  0.98007904    -0.15300
F1092       F  0.74066166  0.80600913  0.97548814    -0.16700
C1093       C  0.78190011  0.07373694  0.27245269     0.13400
C1094       C  0.76726570  0.09523160  0.26307255     0.00300
C1095       C  0.75309489  0.11536295  0.27402347     0.15300
C1096       C  0.75566065  0.11593938  0.29391261     0.24700
C1097       C  0.77203698  0.09590427  0.30336752    -0.41600
C1098       C  0.78390792  0.07370119  0.29231452     0.31800
C1099       C  0.76997288  0.09927489  0.24199371     0.00400
F1100       F  0.73728786  0.13507962  0.26540363    -0.13900
F1101       F  0.79955932  0.05350083  0.30056320    -0.14400
C1102       C  0.75481992  0.06608839  0.23010979     0.15300
C1103       C  0.76132493  0.07035574  0.21043268     0.24700
C1104       C  0.78245770  0.10794576  0.20221012    -0.41500
C1105       C  0.79617151  0.14106356  0.21405909     0.31700
C1106       C  0.79026769  0.13676883  0.23369487     0.13400
F1107       F  0.73371112  0.02949818  0.23757059    -0.13900
F1108       F  0.81724577  0.17782559  0.20681005    -0.14400
F1109       F  0.74672624  0.03771867  0.19941905    -0.16700
F1110       F  0.80613655  0.16945333  0.24471036    -0.15300
F1111       F  0.79649412  0.05453494  0.26235078    -0.15300
F1112       F  0.74244442  0.13652467  0.30385745    -0.16700
C1113       C  0.26579540  0.38087746  0.72752626     0.13400
C1114       C  0.25649379  0.34881489  0.73949178     0.00300
C1115       C  0.24564121  0.31226457  0.73126514     0.15300
C1116       C  0.24060366  0.30696693  0.71158306     0.24700
C1117       C  0.24531292  0.33797059  0.69969705    -0.41600
C1118       C  0.25998850  0.37555021  0.70786005     0.31800
C1119       C  0.25143944  0.35154713  0.76028024     0.00400
F1120       F  0.23635222  0.28064339  0.74242221    -0.13900
F1121       F  0.26685324  0.40689230  0.69701865    -0.14400
C1122       C  0.22376633  0.36152161  0.76671321     0.15300
C1123       C  0.21360544  0.35810584  0.78594360     0.24700
C1124       C  0.23086534  0.34462326  0.79918616    -0.41500
C1125       C  0.25964341  0.33603662  0.79292084     0.31700
C1126       C  0.27016303  0.33987380  0.77363995     0.13400
F1127       F  0.20470032  0.37229077  0.75415855    -0.13900
F1128       F  0.27727941  0.32361131  0.80546110    -0.14400
F1129       F  0.18479579  0.36531980  0.79137178    -0.16700
F1130       F  0.29817794  0.33166494  0.76794826    -0.15300
F1131       F  0.27832081  0.41698649  0.73505025    -0.15300
F1132       F  0.22795885  0.27050455  0.70449395    -0.16700
C1133       C  0.00371522  0.25213350  0.52740751     0.13400
C1134       C  0.00515753  0.22671491  0.51383410     0.00300
C1135       C  0.03043218  0.21173361  0.51693472     0.15300
C1136       C  0.05373907  0.22179285  0.53328494     0.24700
C1137       C  0.05283052  0.24767466  0.54680981    -0.41600
C1138       C  0.02724307  0.26248372  0.54373568     0.31800
C1139       C  0.97951568  0.21458363  0.49673222     0.00400
F1140       F  0.03300539  0.18771614  0.50389859    -0.13900
F1141       F  0.02399357  0.28599804  0.55684028    -0.14400
C1142       C  0.98185637  0.24240477  0.48345357     0.15300
C1143       C  0.95876145  0.23032616  0.46694716     0.24700
C1144       C  0.93277777  0.19013694  0.46343761    -0.41500
C1145       C  0.93026016  0.16250889  0.47690103     0.31700
C1146       C  0.95320989  0.17462269  0.49336136     0.13400
F1147       F  0.00742490  0.28119267  0.48616390    -0.13900
F1148       F  0.90505345  0.12362460  0.47431426    -0.14400
F1149       F  0.96300653  0.25786824  0.45405953    -0.16700
F1150       F  0.94945572  0.14719077  0.50618819    -0.15300
F1151       F  0.97872949  0.26612180  0.52510254    -0.15300
F1152       F  0.07786034  0.20681073  0.53562680    -0.16700
C1153       C  0.16734407  0.72412911  0.73426483     0.13400
C1154       C  0.14150324  0.73122073  0.74503365     0.00300
C1155       C  0.11350540  0.73705151  0.73553574     0.15300
C1156       C  0.11285968  0.73815665  0.71569208     0.24700
C1157       C  0.14111681  0.73465181  0.70480902    -0.41600
C1158       C  0.16731258  0.72595694  0.71439820     0.31800
C1159       C  0.14598114  0.73617614  0.76598630     0.00400
F1160       F  0.08847644  0.74458697  0.74547046    -0.13900
F1161       F  0.19407343  0.72070896  0.70468245    -0.14400
C1162       C  0.18235541  0.76378008  0.77379724     0.15300
C1163       C  0.18622454  0.77112455  0.79331604     0.24700
C1164       C  0.15362068  0.75166579  0.80541830    -0.41500
C1165       C  0.11739617  0.72351918  0.79772640     0.31700
C1166       C  0.11368079  0.71561028  0.77819253     0.13400
F1167       F  0.21380712  0.78520606  0.76240408    -0.13900
F1168       F  0.08569399  0.70346584  0.80914860    -0.14400
F1169       F  0.22147394  0.79896143  0.80022327    -0.16700
F1170       F  0.07846663  0.68799751  0.77117414    -0.15300
F1171       F  0.19366684  0.71677257  0.74303875    -0.15300
F1172       F  0.08592858  0.74516297  0.70733359    -0.16700
C1173       C  0.13684452  0.57236442  0.62013231     0.13400
C1174       C  0.16914915  0.56960771  0.62643475     0.00300
C1175       C  0.20148254  0.60289956  0.63435164     0.15300
C1176       C  0.20174272  0.63851378  0.63565046     0.24700
C1177       C  0.16977113  0.64155525  0.62886053    -0.41600
C1178       C  0.13708258  0.60784274  0.62135156     0.31800
C1179       C  0.16865085  0.53179491  0.62504149     0.00400
F1180       F  0.23345837  0.60129537  0.64021434    -0.13900
F1181       F  0.10510366  0.60909189  0.61516164    -0.14400
C1182       C  0.16124631  0.51191918  0.60757869     0.15300
C1183       C  0.15900363  0.47538262  0.60652541     0.24700
C1184       C  0.16537943  0.45855175  0.62282693    -0.41500
C1185       C  0.17413858  0.47928173  0.64016033     0.31700
C1186       C  0.17496619  0.51505712  0.64129495     0.13400
F1187       F  0.15706705  0.52831588  0.59141792    -0.13900
F1188       F  0.18148199  0.46487259  0.65619054    -0.14400
F1189       F  0.15188591  0.45718666  0.58939703    -0.16700
F1190       F  0.18122482  0.53303188  0.65843976    -0.15300
F1191       F  0.10476855  0.54051310  0.61289321    -0.15300
F1192       F  0.23404544  0.67035667  0.64272118    -0.16700
C1193       C  0.19808271  0.03419702  0.62703604     0.13400
C1194       C  0.16580995  0.03288944  0.61787152     0.00300
C1195       C  0.13906624  0.99876944  0.60817736     0.15300
C1196       C  0.14427610  0.96626863  0.60779079     0.24700
C1197       C  0.17556314  0.96668168  0.61777570    -0.41600
C1198       C  0.20279862  0.00134949  0.62712187     0.31800
C1199       C  0.16059301  0.06745832  0.61815493     0.00400
F1200       F  0.10743517  0.99665284  0.59933856    -0.13900
F1201       F  0.23459974  0.00391954  0.63596156    -0.14400
C1202       C  0.15832347  0.08465911  0.60106375     0.15300
C1203       C  0.15575755  0.11873559  0.60133481     0.24700
C1204       C  0.15533313  0.13608854  0.61873926    -0.41500
C1205       C  0.15617040  0.11796874  0.63584433     0.31700
C1206       C  0.15883164  0.08398433  0.63553862     0.13400
F1207       F  0.15999789  0.06923154  0.58407655    -0.13900
F1208       F  0.15394348  0.13287860  0.65289805    -0.14400
F1209       F  0.15534643  0.13556592  0.58456087    -0.16700
F1210       F  0.15945750  0.06703363  0.65224494    -0.15300
F1211       F  0.22548422  0.06762855  0.63564014    -0.15300
F1212       F  0.11832485  0.93436204  0.59774541    -0.16700
C1213       C  0.35500306  0.22270391  0.23471585     0.13400
C1214       C  0.37436593  0.20897478  0.24646747     0.00300
C1215       C  0.39594265  0.19334893  0.23805808     0.15300
C1216       C  0.39669194  0.18986905  0.21831794     0.24700
C1217       C  0.37517038  0.20118760  0.20653276    -0.41600
C1218       C  0.35523788  0.21875163  0.21496380     0.31800
C1219       C  0.36994793  0.20835836  0.26743594     0.00400
F1220       F  0.41447265  0.17921864  0.24900318    -0.13900
F1221       F  0.33536875  0.23156782  0.20414409    -0.14400
C1222       C  0.33244659  0.18874144  0.27568384     0.15300
C1223       C  0.32809584  0.18434370  0.29538824     0.24700
C1224       C  0.36120703  0.19898215  0.30732304    -0.41500
C1225       C  0.39875974  0.21988970  0.29905460     0.31700
C1226       C  0.40300967  0.22491344  0.27932694     0.13400
F1227       F  0.29987806  0.17177861  0.26460271    -0.13900
F1228       F  0.43145356  0.23484249  0.31000701    -0.14400
F1229       F  0.29134240  0.16318139  0.30259039    -0.16700
F1230       F  0.43951325  0.24551221  0.27176783    -0.15300
F1231       F  0.33523892  0.23935471  0.24242511    -0.15300
F1232       F  0.41649305  0.17301497  0.21092016    -0.16700
C1233       C  0.23090621  0.95586229  0.52720679     0.13400
C1234       C  0.25122905  0.94843297  0.51292959     0.00300
C1235       C  0.26118327  0.91919220  0.51583447     0.15300
C1236       C  0.25081443  0.89758184  0.53274438     0.24700
C1237       C  0.23021420  0.90482561  0.54702758    -0.41600
C1238       C  0.22069717  0.93446345  0.54414492     0.31800
C1239       C  0.26215293  0.97145911  0.49509091     0.00400
F1240       F  0.28013819  0.91093805  0.50209040    -0.13900
F1241       F  0.20248521  0.94354566  0.55794670    -0.14400
C1242       C  0.30168302  0.99493156  0.48997990     0.15300
C1243       C  0.31206304  0.01780744  0.47348010     0.24700
C1244       C  0.28297999  0.01748393  0.46165837    -0.41500
C1245       C  0.24327937  0.99346586  0.46679466     0.31700
C1246       C  0.23307317  0.97085721  0.48336250     0.13400
F1247       F  0.33036374  0.99657660  0.50129197    -0.13900
F1248       F  0.21410793  0.99123595  0.45567279    -0.14400
F1249       F  0.35069672  0.04102512  0.46940836    -0.16700
F1250       F  0.19461738  0.94795360  0.48788216    -0.15300
F1251       F  0.22154252  0.98441350  0.52485784    -0.15300
F1252       F  0.26000933  0.86886757  0.53491720    -0.16700
C1253       C  0.05123042  0.13427175  0.37835678     0.13400
C1254       C  0.06358200  0.12648779  0.39571131     0.00300
C1255       C  0.04045983  0.11952987  0.41201475     0.15300
C1256       C  0.00573346  0.12086120  0.41101750     0.24700
C1257       C  0.99402451  0.13004734  0.39374590    -0.41600
C1258       C  0.01704069  0.13638535  0.37739018     0.31800
C1259       C  0.10090482  0.12624696  0.39661336     0.00400
F1260       F  0.05207825  0.11258094  0.42902551    -0.13900
F1261       F  0.00616074  0.14389640  0.36030256    -0.14400
C1262       C  0.13559780  0.15896514  0.39015991     0.15300
C1263       C  0.17030306  0.15777912  0.38920089     0.24700
C1264       C  0.17108564  0.12389256  0.39483430    -0.41500
C1265       C  0.13673792  0.09181673  0.40223076     0.31700
C1266       C  0.10185983  0.09292690  0.40299575     0.13400
F1267       F  0.13578794  0.19213277  0.38468260    -0.13900
F1268       F  0.13642241  0.05873367  0.40797233    -0.14400
F1269       F  0.20327016  0.19003615  0.38293609    -0.16700
F1270       F  0.06867107  0.06083448  0.40920545    -0.15300
F1271       F  0.07218361  0.13945229  0.36222085    -0.15300
F1272       F  0.98425151  0.11426828  0.42709173    -0.16700
C1273       C  0.63254156  0.15746168  0.37254094     0.13400
C1274       C  0.59830546  0.12441890  0.37925536     0.00300
C1275       C  0.60011241  0.09130849  0.38519909     0.15300
C1276       C  0.63567419  0.09161491  0.38499162     0.24700
C1277       C  0.67021481  0.12496726  0.37864360    -0.41600
C1278       C  0.66820486  0.15775807  0.37223058     0.31800
C1279       C  0.56085381  0.12462848  0.38045454     0.00400
F1280       F  0.56729153  0.05848382  0.39113704    -0.13900
F1281       F  0.70107328  0.19085231  0.36659695    -0.14400
C1282       C  0.54456888  0.13160348  0.36420975     0.15300
C1283       C  0.50896037  0.13125955  0.36531537     0.24700
C1284       C  0.48865852  0.12359926  0.38272419    -0.41500
C1285       C  0.50522100  0.11667344  0.39900959     0.31700
C1286       C  0.54104589  0.11752125  0.39788766     0.13400
F1287       F  0.56279718  0.13795716  0.34713288    -0.13900
F1288       F  0.48727005  0.10987985  0.41618618    -0.14400
F1289       F  0.49397495  0.13744837  0.34918280    -0.16700
F1290       F  0.55685964  0.11219468  0.41397176    -0.15300
F1291       F  0.63173011  0.19003508  0.36694273    -0.15300
F1292       F  0.63625352  0.05912948  0.39100597    -0.16700
C1293       C  0.83763759  0.57833396  0.27137525     0.13400
C1294       C  0.87528031  0.59823705  0.26332981     0.00300
C1295       C  0.90799701  0.61705935  0.27541326     0.15300
C1296       C  0.90298621  0.61689909  0.29515276     0.24700
C1297       C  0.86509189  0.59731776  0.30320737    -0.41600
C1298       C  0.83259009  0.57765608  0.29102122     0.31800
C1299       C  0.87951319  0.60220641  0.24234113     0.00400
F1300       F  0.94477474  0.63645508  0.26806285    -0.13900
F1301       F  0.79549779  0.56041445  0.29791132    -0.14400
C1302       C  0.89816594  0.63960346  0.23394347     0.15300
C1303       C  0.89679621  0.64374716  0.21427474     0.24700
C1304       C  0.87633572  0.61047238  0.20252167    -0.41500
C1305       C  0.85936414  0.57296436  0.21089616     0.31700
C1306       C  0.86105385  0.56892008  0.23057745     0.13400
F1307       F  0.91524904  0.67236711  0.24490595    -0.13900
F1308       F  0.84015137  0.54007837  0.20012879    -0.14400
F1309       F  0.91312920  0.68057432  0.20700739    -0.16700
F1310       F  0.84340541  0.53236882  0.23824441    -0.15300
F1311       F  0.80535560  0.56180509  0.26010456    -0.15300
F1312       F  0.93517557  0.63684990  0.30628997    -0.16700
C1313       C  0.79805283  0.90504538  0.38631491     0.13400
C1314       C  0.83069652  0.90220532  0.39185783     0.00300
C1315       C  0.86479072  0.93589060  0.39811843     0.15300
C1316       C  0.86650717  0.97222569  0.39837776     0.24700
C1317       C  0.83415922  0.97524255  0.39229173    -0.41600
C1318       C  0.79971520  0.94122844  0.38654801     0.31800
C1319       C  0.82911329  0.86405729  0.39086493     0.00400
F1320       F  0.89681653  0.93376945  0.40335550    -0.13900
F1321       F  0.76745284  0.94294883  0.38132236    -0.14400
C1322       C  0.82328792  0.84488186  0.37334524     0.15300
C1323       C  0.82096371  0.80834981  0.37240761     0.24700
C1324       C  0.82441186  0.79034619  0.38903328    -0.41500
C1325       C  0.83114928  0.81021501  0.40650692     0.31700
C1326       C  0.83302300  0.84652252  0.40741635     0.13400
F1327       F  0.82050920  0.86192380  0.35708667    -0.13900
F1328       F  0.83555737  0.79442789  0.42280075    -0.14400
F1329       F  0.81677507  0.79135225  0.35513457    -0.16700
F1330       F  0.83786395  0.86425960  0.42453924    -0.15300
F1331       F  0.76445808  0.87263820  0.38075206    -0.15300
F1332       F  0.90028860  0.00464118  0.40374901    -0.16700
C1333       C  0.84740657  0.35476873  0.39589164     0.13400
C1334       C  0.83590768  0.36521506  0.37903479     0.00300
C1335       C  0.82385399  0.33941709  0.36349868     0.15300
C1336       C  0.82297535  0.30355580  0.36482421     0.24700
C1337       C  0.83432944  0.29274171  0.38178550    -0.41600
C1338       C  0.84661388  0.31900811  0.39729906     0.31800
C1339       C  0.83540212  0.40249760  0.37789100     0.00400
F1340       F  0.81328888  0.34917570  0.34690695    -0.13900
F1341       F  0.85708888  0.30993845  0.41409842    -0.14400
C1342       C  0.86939620  0.43842125  0.38182777     0.15300
C1343       C  0.86840051  0.47336583  0.38143744     0.24700
C1344       C  0.83340062  0.47302344  0.37709607    -0.41500
C1345       C  0.79952202  0.43716082  0.37294443     0.31700
C1346       C  0.80046634  0.40216564  0.37346526     0.13400
F1347       F  0.90354247  0.43965869  0.38618859    -0.13900
F1348       F  0.76495188  0.43569528  0.36947593    -0.14400
F1349       F  0.90170311  0.50761360  0.38532356    -0.16700
F1350       F  0.76676721  0.36769738  0.37057159    -0.15300
F1351       F  0.85838189  0.37878418  0.41126960    -0.15300
F1352       F  0.81127572  0.27975444  0.34936869    -0.16700
C1353       C  0.01574324  0.85943037  0.39511109     0.13400
C1354       C  0.05011105  0.86058589  0.38882382     0.00300
C1355       C  0.04845571  0.82625581  0.38217385     0.15300
C1356       C  0.01287569  0.79117536  0.38157193     0.24700
C1357       C  0.97821664  0.78981904  0.38761901    -0.41600
C1358       C  0.97992213  0.82421471  0.39450846     0.31800
C1359       C  0.08796631  0.89745293  0.38895449     0.00400
F1360       F  0.08158331  0.82667781  0.37650745    -0.13900
F1361       F  0.94685070  0.82399427  0.40011363    -0.14400
C1362       C  0.10572183  0.91533421  0.40619617     0.15300
C1363       C  0.14292308  0.94881040  0.40629171     0.24700
C1364       C  0.16292153  0.96483507  0.38908413    -0.41500
C1365       C  0.14477996  0.94675685  0.37181878     0.31700
C1366       C  0.10768405  0.91333037  0.37179294     0.13400
F1367       F  0.08769815  0.89935419  0.42295618    -0.13900
F1368       F  0.16269958  0.96158208  0.35489967    -0.14400
F1369       F  0.15993674  0.96455462  0.42324636    -0.16700
F1370       F  0.09101642  0.89616791  0.35497957    -0.15300
F1371       F  0.01680781  0.89253342  0.40141745    -0.15300
F1372       F  0.01253275  0.75827259  0.37551796    -0.16700
C1373       C  0.53855489  0.33892042  0.36586913     0.13400
C1374       C  0.55632044  0.35865290  0.38283175     0.00300
C1375       C  0.53918188  0.34143168  0.40031331     0.15300
C1376       C  0.50477859  0.30512754  0.40083558     0.24700
C1377       C  0.48687219  0.28520469  0.38385550    -0.41600
C1378       C  0.50435988  0.30229640  0.36635743     0.31800
C1379       C  0.59336175  0.39659958  0.38230771     0.00400
F1380       F  0.55630008  0.35929770  0.41694058    -0.13900
F1381       F  0.48796395  0.28408057  0.34969981    -0.14400
C1382       C  0.59641335  0.42955823  0.39159023     0.15300
C1383       C  0.63181366  0.46500284  0.39155703     0.24700
C1384       C  0.66483186  0.46832772  0.38200603    -0.41500
C1385       C  0.66134643  0.43541486  0.37235969     0.31700
C1386       C  0.62607610  0.39981278  0.37271370     0.13400
F1387       F  0.56495358  0.42756941  0.40054705    -0.13900
F1388       F  0.69232905  0.43716633  0.36305445    -0.14400
F1389       F  0.63346178  0.49616829  0.40069879    -0.16700
F1390       F  0.62420077  0.36804211  0.36413610    -0.15300
F1391       F  0.55404364  0.35548690  0.34879076    -0.15300
F1392       F  0.48964078  0.28897441  0.41803694    -0.16700
C1393       C  0.66386283  0.85812315  0.73305190     0.13400
C1394       C  0.62788331  0.83467623  0.74228770     0.00300
C1395       C  0.59485510  0.80999562  0.73115272     0.15300
C1396       C  0.59849317  0.80644958  0.71149831     0.24700
C1397       C  0.63518177  0.82828377  0.70239433    -0.41600
C1398       C  0.66747753  0.85513760  0.71344648     0.31800
C1399       C  0.62642765  0.83224536  0.76351185     0.00400
F1400       F  0.55916432  0.78827248  0.73941651    -0.13900
F1401       F  0.70361649  0.87680492  0.70564642    -0.14400
C1402       C  0.64329117  0.86626870  0.77492811     0.15300
C1403       C  0.64677847  0.86363856  0.79466994     0.24700
C1404       C  0.63320979  0.82694057  0.80346740    -0.41500
C1405       C  0.61543111  0.79294728  0.79210029     0.31700
C1406       C  0.61206873  0.79556793  0.77243568     0.13400
F1407       F  0.65710750  0.90221106  0.76694199    -0.13900
F1408       F  0.60379698  0.75714640  0.79979087    -0.14400
F1409       F  0.66377143  0.89705682  0.80515637    -0.16700
F1410       F  0.59715564  0.76219364  0.76195867    -0.15300
F1411       F  0.69659067  0.88193697  0.74318756    -0.15300
F1412       F  0.56625113  0.78059659  0.70158300    -0.16700
C1413       C  0.47232074  0.55859704  0.62234031     0.13400
C1414       C  0.43771309  0.55929311  0.62635273     0.00300
C1415       C  0.43958143  0.59537936  0.62955598     0.15300
C1416       C  0.47543769  0.63024763  0.62870539     0.24700
C1417       C  0.50988782  0.62960253  0.62431494    -0.41600
C1418       C  0.50810591  0.59357042  0.62110096     0.31800
C1419       C  0.39939720  0.52269264  0.62608132     0.00400
F1420       F  0.40646717  0.59695745  0.63284344    -0.13900
F1421       F  0.54112085  0.59221817  0.61714962    -0.14400
C1422       C  0.37385635  0.51181442  0.64170025     0.15300
C1423       C  0.33715264  0.47761406  0.64105344     0.24700
C1424       C  0.32535542  0.45362530  0.62470062    -0.41500
C1425       C  0.35117406  0.46514712  0.60902025     0.31700
C1426       C  0.38766293  0.49920897  0.60975151     0.13400
F1427       F  0.38466750  0.53414646  0.65767711    -0.13900
F1428       F  0.34103344  0.44401463  0.59267524    -0.14400
F1429       F  0.31357843  0.46790418  0.65654976    -0.16700
F1430       F  0.41120132  0.50990082  0.59419692    -0.15300
F1431       F  0.47145021  0.52400812  0.61972773    -0.15300
F1432       F  0.47626330  0.66478650  0.63142548    -0.16700
C1433       C  0.89829218  0.98371052  0.61214301     0.13400
C1434       C  0.89851044  0.01758387  0.61858185     0.00300
C1435       C  0.86345514  0.01489633  0.62487434     0.15300
C1436       C  0.82865631  0.97891506  0.62469425     0.24700
C1437       C  0.82831726  0.94491231  0.61825227    -0.41600
C1438       C  0.86339258  0.94762643  0.61188445     0.31800
C1439       C  0.93517558  0.05584508  0.61878552     0.00400
F1440       F  0.86287218  0.04726901  0.63105402    -0.13900
F1441       F  0.86417974  0.91513294  0.60611249    -0.14400
C1442       C  0.95582383  0.07218927  0.60186858     0.15300
C1443       C  0.98930687  0.10937746  0.60193590     0.24700
C1444       C  0.00281539  0.13089834  0.61900547    -0.41500
C1445       C  0.98238368  0.11391230  0.63599596     0.31700
C1446       C  0.94896992  0.07672954  0.63585748     0.13400
F1447       F  0.94296922  0.05253088  0.58517237    -0.13900
F1448       F  0.99504936  0.13287420  0.65286186    -0.14400
F1449       F  0.00779238  0.12461287  0.58516981    -0.16700
F1450       F  0.93026609  0.06078385  0.65248848    -0.15300
F1451       F  0.93212952  0.98540306  0.60669216    -0.15300
F1452       F  0.79511815  0.97747945  0.63051938    -0.16700
C1453       C  0.38621279  0.79387454  0.60884623     0.13400
C1454       C  0.40466931  0.79724056  0.62638188     0.00300
C1455       C  0.38900299  0.80382403  0.64294663     0.15300
C1456       C  0.35473831  0.80602661  0.64207018     0.24700
C1457       C  0.33578490  0.80196782  0.62456181    -0.41600
C1458       C  0.35207133  0.79626135  0.60792066     0.31800
C1459       C  0.44148882  0.79606861  0.62716738     0.00400
F1460       F  0.40768640  0.80948733  0.65985177    -0.13900
F1461       F  0.33450085  0.79212903  0.59080923    -0.14400
C1462       C  0.47460971  0.82483232  0.61763115     0.15300
C1463       C  0.50952320  0.82405970  0.61794103     0.24700
C1464       C  0.51217049  0.79415320  0.62775445    -0.41500
C1465       C  0.47888802  0.76558320  0.63766057     0.31700
C1466       C  0.44377245  0.76647984  0.63725511     0.13400
F1467       F  0.47316598  0.85398173  0.60801041    -0.13900
F1468       F  0.47984165  0.73622144  0.64731243    -0.14400
F1469       F  0.54083919  0.85303883  0.60864790    -0.16700
F1470       F  0.41162294  0.73779447  0.64619768    -0.15300
F1471       F  0.40127965  0.78813391  0.59261233    -0.15300
F1472       F  0.34086101  0.81352404  0.65823748    -0.16700
C1473       C  0.89298624  0.80374858  0.60145676     0.13400
C1474       C  0.91019279  0.80368939  0.61890051     0.00300
C1475       C  0.89031688  0.80083642  0.63587682     0.15300
C1476       C  0.85329967  0.79730207  0.63544939     0.24700
C1477       C  0.83542115  0.79644336  0.61797895    -0.41600
C1478       C  0.85588012  0.80021998  0.60096944     0.31800
C1479       C  0.94837051  0.80536259  0.61946525     0.00400
F1480       F  0.90692255  0.80161120  0.65289854    -0.13900
F1481       F  0.83940596  0.79897232  0.58385698    -0.14400
C1482       C  0.98239449  0.83885479  0.61311343     0.15300
C1483       C  0.01865689  0.84066718  0.61421418     0.24700
C1484       C  0.02136067  0.80875408  0.62140750    -0.41500
C1485       C  0.98696057  0.77491545  0.62743329     0.31700
C1486       C  0.95083821  0.77337167  0.62655328     0.13400
F1487       F  0.98053463  0.87003137  0.60613620    -0.13900
F1488       F  0.98804785  0.74280121  0.63360732    -0.14400
F1489       F  0.05119926  0.87399079  0.60866799    -0.16700
F1490       F  0.91801199  0.74026734  0.63223217    -0.15300
F1491       F  0.91161867  0.80588830  0.58489208    -0.15300
F1492       F  0.83521136  0.79529783  0.65217474    -0.16700
C1493       C  0.73866967  0.65809530  0.49148121     0.13400
C1494       C  0.74408627  0.69611594  0.49276642     0.00300
C1495       C  0.76021944  0.72182940  0.47730636     0.15300
C1496       C  0.77167337  0.71009979  0.46096217     0.24700
C1497       C  0.76749764  0.67253016  0.45982415    -0.41600
C1498       C  0.75027717  0.64633979  0.47511990     0.31800
C1499       C  0.73357599  0.70932892  0.51032804     0.00400
F1500       F  0.76434457  0.75816769  0.47795932    -0.13900
F1501       F  0.74573226  0.60982833  0.47446176    -0.14400
C1502       C  0.76282079  0.73967530  0.52123977     0.15300
C1503       C  0.75318548  0.75209105  0.53797455     0.24700
C1504       C  0.71382591  0.73457867  0.54406325    -0.41500
C1505       C  0.68448682  0.70466699  0.53271888     0.31700
C1506       C  0.69438866  0.69201565  0.51613646     0.13400
F1507       F  0.80094610  0.75686373  0.51582256    -0.13900
F1508       F  0.64601280  0.68798927  0.53740023    -0.14400
F1509       F  0.78263873  0.78083921  0.54830637    -0.16700
F1510       F  0.66557017  0.66328644  0.50550917    -0.15300
F1511       F  0.72302329  0.63273412  0.50626831    -0.15300
F1512       F  0.78578515  0.73509116  0.44598924    -0.16700
loop_ 
_geom_bond_atom_site_label_1 
_geom_bond_atom_site_label_2 
_geom_bond_distance 
_geom_bond_site_symmetry_2 
_ccdc_geom_bond_type 
Zr1           O2   2.441       .  S
Zr1           O3   2.440       .  S
Zr1           O4   2.446       .  S
Zr1           O7   2.410       .  S
Zr1           O9   2.379       .  S
Zr1          O10   2.386       .  S
Zr1          O11   2.402       .  S
Zr1          O12   2.411       .  S
O2           H58   0.991       .  S
O2           H66   0.990       .  S
O3           C23   1.285       .  A
O4           C25   1.286       .  A
O5          Zr15   2.429       .  S
O5           C24   1.285       .  A
O6          Zr14   2.432       .  S
O6           C25   1.285       .  A
O7           C24   1.281       .  A
O8          Zr16   2.413       .  S
O8           C23   1.281       .  A
O9          Zr14   2.387       .  S
O9          Zr16   2.383       .  S
O10         Zr15   2.386       .  S
O10         Zr16   2.367       .  S
O10          H45   0.967       .  S
O11         Zr14   2.394       .  S
O11         Zr31   2.396       .  S
O11          H48   0.968       .  S
O12         Zr15   2.395       .  S
O12         Zr31   2.396       .  S
Zr13         O38   2.440       .  S
Zr13         O32   2.423       .  S
Zr13         O40   2.434       .  S
Zr13         O28   2.433       .  S
Zr13         O19   2.399       .  S
Zr13         O20   2.401       .  S
Zr13         O21   2.378       .  S
Zr13         O22   2.384       .  S
Zr14         O33   2.436       .  S
Zr14         O26   2.434       .  S
Zr14         O27   2.416       .  S
Zr14         O20   2.395       .  S
Zr14         O21   2.384       .  S
Zr15         O17   2.435       .  S
Zr15         O39   2.438       .  S
Zr15         O41   2.435       .  S
Zr15         O19   2.387       .  S
Zr15         O22   2.388       .  S
Zr16         O42   2.436       .  S
Zr16         O43   2.436       .  S
Zr16         O18   2.435       .  S
Zr16         O19   2.395       .  S
Zr16         O20   2.387       .  S
O17          H54   0.990       .  S
O18          H49   0.990       .  S
O18          H63   0.990       .  S
O20          H46   0.968       .  S
O21         Zr31   2.369       .  S
O22         Zr31   2.368       .  S
O22          H47   0.974       .  S
C23        C1464   1.489       .  S
C24        C1417   1.468       .  S
C25        C1397   1.498       .  S
O26          H62   0.990       .  S
O27          C29   1.283       .  A
O28          C29   1.285       .  A
C29        C1437   1.473       .  S
O30         Zr31   2.438       .  S
O30          H59   0.991       .  S
Zr31         O34   2.436       .  S
Zr31         O35   2.441       .  S
Zr31         O36   2.431       .  S
O32          C37   1.283       .  A
O33          H50   0.990       .  S
O33          H65   0.990       .  S
O34          H51   0.990       .  S
O35          H55   0.990       .  S
O35          H64   0.990       .  S
O36          C37   1.284       .  A
C37        C1477   1.480       .  S
O38          H57   0.991       .  S
O38          H61   0.990       .  S
O39          H53   0.990       .  S
O39          H60   0.990       .  S
O40          C44   1.286       .  A
O41          C44   1.286       .  A
O42          H52   0.990       .  S
O43          H56   0.990       .  S
C44        C1504   1.492       .  S
Zr67         O68   2.438       .  S
Zr67         O69   2.430       .  S
Zr67         O70   2.448       .  S
Zr67         O73   2.432       .  S
Zr67         O75   2.381       .  S
Zr67         O76   2.383       .  S
Zr67         O77   2.401       .  S
Zr67         O78   2.402       .  S
O68         H124   0.990       .  S
O68         H132   0.990       .  S
O69          C89   1.284       .  A
O70          C91   1.288       .  A
O71         Zr81   2.408       .  S
O71          C90   1.280       .  A
O72         Zr80   2.426       .  S
O72          C91   1.283       .  A
O73          C90   1.285       .  A
O74         Zr82   2.415       .  S
O74          C89   1.281       .  A
O75         Zr80   2.389       .  S
O75         Zr82   2.379       .  S
O76         Zr81   2.388       .  S
O76         Zr82   2.369       .  S
O76         H111   0.969       .  S
O77         Zr80   2.398       .  S
O77         Zr97   2.386       .  S
O77         H114   0.969       .  S
O78         Zr81   2.391       .  S
O78         Zr97   2.398       .  S
Zr79        O104   2.438       .  S
Zr79         O98   2.418       .  S
Zr79        O106   2.431       .  S
Zr79         O94   2.421       .  S
Zr79         O85   2.397       .  S
Zr79         O86   2.402       .  S
Zr79         O87   2.376       .  S
Zr79         O88   2.374       .  S
Zr80         O99   2.439       .  S
Zr80         O92   2.434       .  S
Zr80         O93   2.424       .  S
Zr80         O86   2.392       .  S
Zr80         O87   2.385       .  S
Zr81         O83   2.434       .  S
Zr81        O105   2.438       .  S
Zr81        O107   2.428       .  S
Zr81         O85   2.389       .  S
Zr81         O88   2.379       .  S
Zr82        O108   2.435       .  S
Zr82        O109   2.436       .  S
Zr82         O84   2.437       .  S
Zr82         O85   2.400       .  S
Zr82         O86   2.390       .  S
O83         H120   0.990       .  S
O84         H115   0.990       .  S
O84         H129   0.990       .  S
O86         H112   0.969       .  S
O87         Zr97   2.369       .  S
O88         Zr97   2.371       .  S
O88         H113   0.974       .  S
C89        C1344   1.474       .  S
C90        C1384   1.480       .  S
C91        C1297   1.487       .  S
O92         H128   0.990       .  S
O93          C95   1.284       .  A
O94          C95   1.283       .  A
C95        C1357   1.473       .  S
O96         Zr97   2.439       .  S
O96         H125   0.990       .  S
Zr97        O100   2.437       .  S
Zr97        O101   2.439       .  S
Zr97        O102   2.429       .  S
O98         C103   1.282       .  A
O99         H116   0.990       .  S
O99         H131   0.990       .  S
O100        H117   0.989       .  S
O101        H121   0.990       .  S
O101        H130   0.990       .  S
O102        C103   1.284       .  A
C103       C1324   1.480       .  S
O104        H123   0.990       .  S
O104        H127   0.990       .  S
O105        H119   0.990       .  S
O105        H126   0.990       .  S
O106        C110   1.285       .  A
O107        C110   1.284       .  A
O108        H118   0.990       .  S
O109        H122   0.990       .  S
C110       C1497   1.478       .  S
Zr133       O134   2.440       .  S
Zr133       O135   2.431       .  S
Zr133       O136   2.437       .  S
Zr133       O139   2.434       .  S
Zr133       O141   2.386       .  S
Zr133       O142   2.382       .  S
Zr133       O143   2.407       .  S
Zr133       O144   2.405       .  S
O134        H190   0.991       .  S
O134        H198   0.990       .  S
O135        C155   1.284       .  A
O136        C157   1.285       .  A
O137       Zr147   2.429       .  S
O137        C156   1.284       .  A
O138       Zr146   2.439       .  S
O138        C157   1.286       .  A
O139        C156   1.285       .  A
O140       Zr148   2.407       .  S
O140        C155   1.280       .  A
O141       Zr146   2.389       .  S
O141       Zr148   2.382       .  S
O142       Zr147   2.386       .  S
O142       Zr148   2.372       .  S
O142        H177   0.965       .  S
O143       Zr146   2.401       .  S
O143       Zr163   2.383       .  S
O143        H180   0.968       .  S
O144       Zr147   2.390       .  S
O144       Zr163   2.400       .  S
Zr145       O170   2.443       .  S
Zr145       O164   2.419       .  S
Zr145       O172   2.430       .  S
Zr145       O160   2.421       .  S
Zr145       O151   2.399       .  S
Zr145       O152   2.403       .  S
Zr145       O153   2.380       .  S
Zr145       O154   2.380       .  S
Zr146       O165   2.436       .  S
Zr146       O158   2.435       .  S
Zr146       O159   2.434       .  S
Zr146       O152   2.395       .  S
Zr146       O153   2.389       .  S
Zr147       O149   2.434       .  S
Zr147       O171   2.436       .  S
Zr147       O173   2.430       .  S
Zr147       O151   2.395       .  S
Zr147       O154   2.385       .  S
Zr148       O174   2.434       .  S
Zr148       O175   2.436       .  S
Zr148       O150   2.437       .  S
Zr148       O151   2.398       .  S
Zr148       O152   2.385       .  S
O149        H186   0.990       .  S
O150        H181   0.991       .  S
O150        H195   0.990       .  S
O152        H178   0.971       .  S
O153       Zr163   2.372       .  S
O154       Zr163   2.371       .  S
O154        H179   0.969       .  S
C155       C1377   1.477       .  S
C156       C1284   1.488       .  S
C157       C1224   1.486       .  S
O158        H194   0.990       .  S
O159        C161   1.286       .  A
O160        C161   1.283       .  A
C161       C1264   1.478       .  S
O162       Zr163   2.439       .  S
O162        H191   0.990       .  S
Zr163       O166   2.437       .  S
Zr163       O167   2.440   1_545  S
Zr163       O168   2.422       .  S
O164        C169   1.282       .  A
O165        H182   0.990       .  S
O165        H197   0.990       .  S
O166        H183   0.990       .  S
O167        H187   0.990       .  S
O167        H196   0.990       .  S
O168        C169   1.283       .  A
C169       C1364   1.478   1_545  S
O170        H189   0.990       .  S
O170        H193   0.990       .  S
O171        H185   0.990       .  S
O171        H192   0.990       .  S
O172        C176   1.285       .  A
O173        C176   1.285       .  A
O174        H184   0.990       .  S
O175        H188   0.990       .  S
C176       C1244   1.488       .  S
Zr199       O200   2.439       .  S
Zr199       O201   2.443       .  S
Zr199       O202   2.445       .  S
Zr199       O205   2.422       .  S
Zr199       O207   2.379       .  S
Zr199       O208   2.381       .  S
Zr199       O209   2.402       .  S
Zr199       O210   2.408       .  S
O200        H256   0.990       .  S
O200        H264   0.990       .  S
O201        C221   1.287       .  A
O202        C223   1.287       .  A
O203       Zr213   2.432       .  S
O203        C222   1.285       .  A
O204       Zr212   2.424       .  S
O204        C223   1.283       .  A
O205        C222   1.283       .  A
O206       Zr214   2.409       .  S
O206        C221   1.281       .  A
O207       Zr212   2.389       .  S
O207       Zr214   2.384       .  S
O208       Zr213   2.383       .  S
O208       Zr214   2.369       .  S
O208        H243   0.969       .  S
O209       Zr212   2.394       .  S
O209       Zr229   2.393       .  S
O209        H246   0.970       .  S
O210       Zr213   2.393       .  S
O210       Zr229   2.402       .  S
Zr211       O236   2.439       .  S
Zr211       O230   2.402       .  S
Zr211       O238   2.428       .  S
Zr211       O226   2.438       .  S
Zr211       O217   2.395       .  S
Zr211       O218   2.395       .  S
Zr211       O219   2.376       .  S
Zr211       O220   2.383       .  S
Zr212       O231   2.437       .  S
Zr212       O224   2.434       .  S
Zr212       O225   2.422       .  S
Zr212       O218   2.394       .  S
Zr212       O219   2.385       .  S
Zr213       O215   2.435       .  S
Zr213       O237   2.436       .  S
Zr213       O239   2.432       .  S
Zr213       O217   2.391       .  S
Zr213       O220   2.387       .  S
Zr214       O240   2.436       .  S
Zr214       O241   2.437       .  S
Zr214       O216   2.436       .  S
Zr214       O217   2.390       .  S
Zr214       O218   2.386       .  S
O215        H252   0.990       .  S
O216        H247   0.990       .  S
O216        H261   0.990       .  S
O218        H244   0.970       .  S
O219       Zr229   2.372       .  S
O220       Zr229   2.365       .  S
O220        H245   0.969       .  S
C221       C1177   1.483       .  S
C222       C1457   1.476       .  S
C223       C1157   1.494       .  S
O224        H260   0.990       .  S
O225        C227   1.284       .  A
O226        C227   1.286       .  A
C227       C1484   1.479       .  S
O228       Zr229   2.439       .  S
O228        H257   0.990       .  S
Zr229       O232   2.436       .  S
Zr229       O233   2.440       .  S
Zr229       O234   2.440       .  S
O230        C235   1.279       .  A
O231        H248   0.990       .  S
O231        H263   0.990       .  S
O232        H249   0.990       .  S
O233        H253   0.990       .  S
O233        H262   0.990       .  S
O234        C235   1.286       .  A
C235       C1197   1.483       .  S
O236        H255   0.990       .  S
O236        H259   0.990       .  S
O237        H251   0.990       .  S
O237        H258   0.990       .  S
O238        C242   1.285       .  A
O239        C242   1.285       .  A
O240        H250   0.990       .  S
O241        H254   0.990       .  S
C242       C1237   1.480       .  S
Zr265       O266   2.439       .  S
Zr265       O267   2.432       .  S
Zr265       O268   2.436       .  S
Zr265       O271   2.412       .  S
Zr265       O273   2.377       .  S
Zr265       O274   2.382       .  S
Zr265       O275   2.399       .  S
Zr265       O276   2.407       .  S
O266        H322   0.990       .  S
O266        H330   0.990       .  S
O267        C287   1.284       .  A
O268        C289   1.285       .  A
O269       Zr279   2.435       .  S
O269        C288   1.286       .  A
O270       Zr278   2.439       .  S
O270        C289   1.286       .  A
O271        C288   1.282       .  A
O272       Zr280   2.416       .  S
O272        C287   1.281       .  A
O273       Zr278   2.387       .  S
O273       Zr280   2.379       .  S
O274       Zr279   2.389       .  S
O274       Zr280   2.372       .  S
O274        H309   0.963       .  S
O275       Zr278   2.391       .  S
O275       Zr295   2.396       .  S
O275        H312   0.969       .  S
O276       Zr279   2.394       .  S
O276       Zr295   2.402       .  S
Zr277       O302   2.441       .  S
Zr277       O296   2.408       .  S
Zr277       O304   2.448       .  S
Zr277       O292   2.425       .  S
Zr277       O283   2.394       .  S
Zr277       O284   2.403       .  S
Zr277       O285   2.383       .  S
Zr277       O286   2.378       .  S
Zr278       O297   2.437       .  S
Zr278       O290   2.436       .  S
Zr278       O291   2.418       .  S
Zr278       O284   2.401       .  S
Zr278       O285   2.388       .  S
Zr279       O281   2.435       .  S
Zr279       O303   2.436       .  S
Zr279       O305   2.436       .  S
Zr279       O283   2.397       .  S
Zr279       O286   2.386       .  S
Zr280       O306   2.434       .  S
Zr280       O307   2.434       .  S
Zr280       O282   2.437       .  S
Zr280       O283   2.399       .  S
Zr280       O284   2.382       .  S
O281        H318   0.990       .  S
O282        H313   0.990       .  S
O282        H327   0.990       .  S
O284        H310   0.972       .  S
O285       Zr295   2.366       .  S
O286       Zr295   2.369       .  S
O286        H311   0.971       .  S
C287       C1424   1.487       .  S
C288       C1184   1.483       .  S
C289       C1117   1.496       .  S
O290        H326   0.990       .  S
O291        C293   1.283       .  A
O292        C293   1.284       .  A
C293       C1204   1.473       .  S
O294       Zr295   2.438       .  S
O294        H323   0.991       .  S
Zr295       O298   2.436       .  S
Zr295       O299   2.442       .  S
Zr295       O300   2.436       .  S
O296        C301   1.280       .  A
O297        H314   0.990       .  S
O297        H329   0.990       .  S
O298        H315   0.990       .  S
O299        H319   0.990       .  S
O299        H328   0.990       .  S
O300        C301   1.285       .  A
C301       C1444   1.482       .  S
O302        H321   0.990       .  S
O302        H325   0.990       .  S
O303        H317   0.990       .  S
O303        H324   0.990       .  S
O304        C308   1.288       .  A
O305        C308   1.285       .  A
O306        H316   0.990       .  S
O307        H320   0.990       .  S
C308       C1137   1.490       .  S
Zr331       O332   2.440       .  S
Zr331       O333   2.446       .  S
Zr331       O334   2.454       .  S
Zr331       O337   2.427       .  S
Zr331       O339   2.382       .  S
Zr331       O340   2.385       .  S
Zr331       O341   2.406       .  S
Zr331       O342   2.412       .  S
O332        H388   0.990       .  S
O332        H396   0.990       .  S
O333        C353   1.287       .  A
O334        C355   1.288       .  A
O335       Zr345   2.428       .  S
O335        C354   1.284       .  A
O336       Zr344   2.437       .  S
O336        C355   1.285       .  A
O337        C354   1.284       .  A
O338       Zr346   2.405       .  S
O338        C353   1.279       .  A
O339       Zr344   2.392       .  S
O339       Zr346   2.386       .  S
O340       Zr345   2.390       .  S
O340       Zr346   2.371       .  S
O340        H375   0.962       .  S
O341       Zr344   2.392       .  S
O341       Zr361   2.385       .  S
O341        H378   0.969       .  S
O342       Zr345   2.393       .  S
O342       Zr361   2.398       .  S
Zr343       O368   2.442       .  S
Zr343       O362   2.414       .  S
Zr343       O370   2.441       .  S
Zr343       O358   2.432       .  S
Zr343       O349   2.398       .  S
Zr343       O350   2.401       .  S
Zr343       O351   2.380       .  S
Zr343       O352   2.383       .  S
Zr344       O363   2.436       .  S
Zr344       O356   2.434       .  S
Zr344       O357   2.417       .  S
Zr344       O350   2.399       .  S
Zr344       O351   2.384       .  S
Zr345       O347   2.433       .  S
Zr345       O369   2.437       .  S
Zr345       O371   2.439       .  S
Zr345       O349   2.395       .  S
Zr345       O352   2.385       .  S
Zr346       O372   2.436       .  S
Zr346       O373   2.436       .  S
Zr346       O348   2.438       .  S
Zr346       O349   2.399       .  S
Zr346       O350   2.382       .  S
O347        H384   0.990       .  S
O348        H379   0.990       .  S
O348        H393   0.990       .  S
O350        H376   0.970       .  S
O351       Zr361   2.371       .  S
O352       Zr361   2.366       .  S
O352        H377   0.971       .  S
C353       C1277   1.481       .  S
C354       C1337   1.490       .  S
C355       C1097   1.496       .  S
O356        H392   0.990   1_545  S
O357        C359   1.283       .  A
O358        C359   1.285       .  A
C359       C1317   1.472   1_545  S
O360       Zr361   2.437       .  S
O360        H389   0.990       .  S
Zr361       O364   2.436       .  S
Zr361       O365   2.438       .  S
Zr361       O366   2.424       .  S
O362        C367   1.281       .  A
O363        H380   0.990       .  S
O363        H395   0.990       .  S
O364        H381   0.990       .  S
O365        H385   0.990       .  S
O365        H394   0.990       .  S
O366        C367   1.283       .  A
C367       C1257   1.479       .  S
O368        H387   0.990       .  S
O368        H391   0.990       .  S
O369        H383   0.990       .  S
O369        H390   0.990       .  S
O370        C374   1.287       .  A
O371        C374   1.286       .  A
O372        H382   0.990       .  S
O373        H386   0.990       .  S
C374       C1144   1.488       .  S
Zr397       O398   2.439       .  S
Zr397       O399   2.416       .  S
Zr397       O400   2.453       .  S
Zr397       O403   2.437       .  S
Zr397       O405   2.380       .  S
Zr397       O406   2.388       .  S
Zr397       O407   2.399       .  S
Zr397       O408   2.403       .  S
O398        H454   0.990       .  S
O398        H462   0.990       .  S
O399        C419   1.281       .  A
O400        C421   1.288       .  A
O401       Zr411   2.411       .  S
O401        C420   1.282       .  A
O402       Zr410   2.432       .  S
O402        C421   1.285       .  A
O403        C420   1.287       .  A
O404       Zr412   2.431       .  S
O404        C419   1.284       .  A
O405       Zr410   2.389       .  S
O405       Zr412   2.371       .  S
O406       Zr411   2.388       .  S
O406       Zr412   2.372       .  S
O406        H441   0.965       .  S
O407       Zr410   2.401       .  S
O407       Zr427   2.393       .  S
O407        H444   0.964       .  S
O408       Zr411   2.399       .  S
O408       Zr427   2.384       .  S
Zr409       O434   2.440       .  S
Zr409       O428   2.440       .  S
Zr409       O436   2.433       .  S
Zr409       O424   2.421       .  S
Zr409       O415   2.393       .  S
Zr409       O416   2.410       .  S
Zr409       O417   2.380       .  S
Zr409       O418   2.381       .  S
Zr410       O429   2.436       .  S
Zr410       O422   2.434       .  S
Zr410       O423   2.438       .  S
Zr410       O416   2.395       .  S
Zr410       O417   2.392       .  S
Zr411       O413   2.435       .  S
Zr411       O435   2.440       .  S
Zr411       O437   2.441       .  S
Zr411       O415   2.379       .  S
Zr411       O418   2.387       .  S
Zr412       O438   2.435       .  S
Zr412       O439   2.436       .  S
Zr412       O414   2.438       .  S
Zr412       O415   2.394       .  S
Zr412       O416   2.401       .  S
O413        H450   0.990       .  S
O414        H445   0.990       .  S
O414        H459   0.990       .  S
O416        H442   0.967       .  S
O417       Zr427   2.379       .  S
O418       Zr427   2.389       .  S
O418        H443   0.965       .  S
C419       C1057   1.473       .  S
C420       C1017   1.475       .  S
C421       C1077   1.485       .  S
O422        H458   0.990       .  S
O423        C425   1.285       .  A
O424        C425   1.281       .  A
C425        C997   1.483       .  S
O426       Zr427   2.436       .  S
O426        H455   0.990       .  S
Zr427       O430   2.434       .  S
Zr427       O431   2.440       .  S
Zr427       O432   2.399       .  S
O428        C433   1.285       .  A
O429        H446   0.990       .  S
O429        H461   0.990       .  S
O430        H447   0.990       .  S
O431        H451   0.990       .  S
O431        H460   0.990       .  S
O432        C433   1.278       .  A
C433       C1037   1.472       .  S
O434        H453   0.991       .  S
O434        H457   0.990       .  S
O435        H449   0.990       .  S
O435        H456   0.990       .  S
O436        C440   1.285       .  A
O437        C440   1.286       .  A
O438        H448   0.990       .  S
O439        H452   0.990       .  S
C440       C1404   1.489       .  S
Zr463       O464   2.437       .  S
Zr463       O465   2.427       .  S
Zr463       O466   2.429       .  S
Zr463       O469   2.427       .  S
Zr463       O471   2.378       .  S
Zr463       O472   2.380       .  S
Zr463       O473   2.404       .  S
Zr463       O474   2.399       .  S
O464        H520   0.990       .  S
O464        H528   0.990       .  S
O465        C485   1.284       .  A
O466        C487   1.285       .  A
O467       Zr477   2.422       .  S
O467        C486   1.283       .  A
O468       Zr476   2.452       .  S
O468        C487   1.289       .  A
O469        C486   1.285       .  A
O470       Zr478   2.431       .  S
O470        C485   1.284       .  A
O471       Zr476   2.387       .  S
O471       Zr478   2.369       .  S
O472       Zr477   2.382       .  S
O472       Zr478   2.373       .  S
O472        H507   0.967       .  S
O473       Zr476   2.396       .  S
O473       Zr493   2.404       .  S
O473        H510   0.963       .  S
O474       Zr477   2.388       .  S
O474       Zr493   2.392       .  S
Zr475       O500   2.445       .  S
Zr475       O494   2.432       .  S
Zr475       O502   2.439       .  S
Zr475       O490   2.421       .  S
Zr475       O481   2.396       .  S
Zr475       O482   2.409       .  S
Zr475       O483   2.381       .  S
Zr475       O484   2.379       .  S
Zr476       O495   2.434       .  S
Zr476       O488   2.436       .  S
Zr476       O489   2.437       .  S
Zr476       O482   2.398       .  S
Zr476       O483   2.391       .  S
Zr477       O479   2.436       .  S
Zr477       O501   2.440       .  S
Zr477       O503   2.420       .  S
Zr477       O481   2.391       .  S
Zr477       O484   2.383       .  S
Zr478       O504   2.435       .  S
Zr478       O505   2.435       .  S
Zr478       O480   2.437       .  S
Zr478       O481   2.399       .  S
Zr478       O482   2.396       .  S
O479        H516   0.990       .  S
O480        H511   0.990       .  S
O480        H525   0.990       .  S
O482        H508   0.962       .  S
O483       Zr493   2.372       .  S
O484       Zr493   2.378       .  S
O484        H509   0.965       .  S
C485        C964   1.492       .  S
C486        C917   1.474       .  S
C487       C1084   1.498       .  S
O488        H524   0.990       .  S
O489        C491   1.286       .  A
O490        C491   1.283       .  A
C491        C937   1.486       .  S
O492       Zr493   2.438       .  S
O492        H521   0.990       .  S
Zr493       O496   2.436       .  S
Zr493       O497   2.440       .  S
Zr493       O498   2.424       .  S
O494        C499   1.284       .  A
O495        H512   0.990       .  S
O495        H527   0.990       .  S
O496        H513   0.990       .  S
O497        H517   0.990       .  S
O497        H526   0.990       .  S
O498        C499   1.283       .  A
C499        C977   1.479       .  S
O500        H519   0.990       .  S
O500        H523   0.990       .  S
O501        H515   0.990       .  S
O501        H522   0.990       .  S
O502        C506   1.286       .  A
O503        C506   1.283       .  A
O504        H514   0.990       .  S
O505        H518   0.990       .  S
C506       C1304   1.488       .  S
Zr529       O530   2.439       .  S
Zr529       O531   2.413       .  S
Zr529       O532   2.441       .  S
Zr529       O535   2.426       .  S
Zr529       O537   2.378       .  S
Zr529       O538   2.383       .  S
Zr529       O539   2.397       .  S
Zr529       O540   2.398       .  S
O530        H586   0.990       .  S
O530        H594   0.990       .  S
O531        C551   1.281       .  A
O532        C553   1.286       .  A
O533       Zr543   2.421       .  S
O533        C552   1.283       .  A
O534       Zr542   2.436       .  S
O534        C553   1.286       .  A
O535        C552   1.285       .  A
O536       Zr544   2.428       .  S
O536        C551   1.284       .  A
O537       Zr542   2.387       .  S
O537       Zr544   2.376       .  S
O538       Zr543   2.386       .  S
O538       Zr544   2.375       .  S
O538        H573   0.967       .  S
O539       Zr542   2.394       .  S
O539       Zr559   2.394       .  S
O539        H576   0.964       .  S
O540       Zr543   2.391       .  S
O540       Zr559   2.391       .  S
Zr541       O566   2.437       .  S
Zr541       O560   2.435       .  S
Zr541       O568   2.442       .  S
Zr541       O556   2.432       .  S
Zr541       O547   2.394       .  S
Zr541       O548   2.409       .  S
Zr541       O549   2.377       .  S
Zr541       O550   2.384       .  S
Zr542       O561   2.436       .  S
Zr542       O554   2.435       .  S
Zr542       O555   2.428       .  S
Zr542       O548   2.399       .  S
Zr542       O549   2.387       .  S
Zr543       O545   2.435       .  S
Zr543       O567   2.439       .  S
Zr543       O569   2.416       .  S
Zr543       O547   2.388       .  S
Zr543       O550   2.386       .  S
Zr544       O570   2.436       .  S
Zr544       O571   2.438       .  S
Zr544       O546   2.437       .  S
Zr544       O547   2.389       .  S
Zr544       O548   2.402       .  S
O545        H582   0.990       .  S
O546        H577   0.990   1_545  S
O546        H591   0.990   1_545  S
O548        H574   0.968       .  S
O549       Zr559   2.370       .  S
O550       Zr559   2.382       .  S
O550        H575   0.970       .  S
C551        C924   1.481   1_545  S
C552        C884   1.483       .  S
C553        C857   1.493       .  S
O554        H590   0.990       .  S
O555        C557   1.284       .  A
O556        C557   1.284       .  A
C557        C897   1.483       .  S
O558       Zr559   2.439       .  S
O558        H587   0.990       .  S
Zr559       O562   2.438       .  S
Zr559       O563   2.438       .  S
Zr559       O564   2.414       .  S
O560        C565   1.284       .  A
O561        H578   0.990       .  S
O561        H593   0.990       .  S
O562        H579   0.990       .  S
O563        H583   0.990       .  S
O563        H592   0.990       .  S
O564        C565   1.281       .  A
C565        C944   1.476       .  S
O566        H585   0.990       .  S
O566        H589   0.990       .  S
O567        H581   0.990       .  S
O567        H588   0.990       .  S
O568        C572   1.287       .  A
O569        C572   1.282       .  A
O570        H580   0.990       .  S
O571        H584   0.990       .  S
C572       C1217   1.487       .  S
Zr595       O596   2.438       .  S
Zr595       O597   2.422       .  S
Zr595       O598   2.438       .  S
Zr595       O601   2.433       .  S
Zr595       O603   2.381       .  S
Zr595       O604   2.383       .  S
Zr595       O605   2.401       .  S
Zr595       O606   2.397       .  S
O596        H652   0.990       .  S
O596        H660   0.990       .  S
O597        C617   1.283       .  A
O598        C619   1.287       .  A
O599       Zr609   2.426       .  S
O599        C618   1.284       .  A
O600       Zr608   2.435       .  S
O600        C619   1.286       .  A
O601        C618   1.286       .  A
O602       Zr610   2.425       .  S
O602        C617   1.283       .  A
O603       Zr608   2.388       .  S
O603       Zr610   2.368       .  S
O604       Zr609   2.382       .  S
O604       Zr610   2.376       .  S
O604        H639   0.967       .  S
O605       Zr608   2.399       .  S
O605       Zr625   2.395       .  S
O605        H642   0.963       .  S
O606       Zr609   2.390       .  S
O606       Zr625   2.390       .  S
Zr607       O632   2.442       .  S
Zr607       O626   2.441       .  S
Zr607       O634   2.426       .  S
Zr607       O622   2.411       .  S
Zr607       O613   2.396       .  S
Zr607       O614   2.410       .  S
Zr607       O615   2.378       .  S
Zr607       O616   2.377       .  S
Zr608       O627   2.437       .  S
Zr608       O620   2.434       .  S
Zr608       O621   2.438       .  S
Zr608       O614   2.398       .  S
Zr608       O615   2.391       .  S
Zr609       O611   2.435       .  S
Zr609       O633   2.439       .  S
Zr609       O635   2.430       .  S
Zr609       O613   2.391       .  S
Zr609       O616   2.386       .  S
Zr610       O636   2.434       .  S
Zr610       O637   2.435       .  S
Zr610       O612   2.438       .  S
Zr610       O613   2.394       .  S
Zr610       O614   2.398       .  S
O611        H648   0.990       .  S
O612        H643   0.990       .  S
O612        H657   0.990       .  S
O614        H640   0.968       .  S
O615       Zr625   2.374       .  S
O616       Zr625   2.385       .  S
O616        H641   0.969       .  S
C617        C837   1.480       .  S
C618       C1064   1.490       .  S
C619        C864   1.484       .  S
O620        H656   0.990       .  S
O621        C623   1.286       .  A
O622        C623   1.279       .  A
C623       C1044   1.483       .  S
O624       Zr625   2.439       .  S
O624        H653   0.990       .  S
Zr625       O628   2.436       .  S
Zr625       O629   2.440       .  S
Zr625       O630   2.408       .  S
O626        C631   1.285       .  A
O627        H644   0.990       .  S
O627        H659   0.990       .  S
O628        H645   0.990       .  S
O629        H649   0.990       .  S
O629        H658   0.990       .  S
O630        C631   1.280       .  A
C631        C817   1.485       .  S
O632        H651   0.991       .  S
O632        H655   0.990       .  S
O633        H647   0.990       .  S
O633        H654   0.990       .  S
O634        C638   1.283       .  A
O635        C638   1.284       .  A
O636        H646   0.990       .  S
O637        H650   0.990       .  S
C638       C1164   1.478       .  S
Zr661       O662   2.440       .  S
Zr661       O663   2.409       .  S
Zr661       O664   2.442       .  S
Zr661       O667   2.435       .  S
Zr661       O669   2.381       .  S
Zr661       O670   2.384       .  S
Zr661       O671   2.396       .  S
Zr661       O672   2.394       .  S
O662        H718   0.990       .  S
O662        H726   0.990       .  S
O663        C683   1.280       .  A
O664        C685   1.286       .  A
O665       Zr675   2.424       .  S
O665        C684   1.284       .  A
O666       Zr674   2.442       .  S
O666        C685   1.286       .  A
O667        C684   1.286       .  A
O668       Zr676   2.439       .  S
O668        C683   1.285       .  A
O669       Zr674   2.391       .  S
O669       Zr676   2.376       .  S
O670       Zr675   2.383       .  S
O670       Zr676   2.371       .  S
O670        H705   0.963       .  S
O671       Zr674   2.397       .  S
O671       Zr691   2.395       .  S
O671        H708   0.963       .  S
O672       Zr675   2.393       .  S
O672       Zr691   2.381       .  S
Zr673       O698   2.444       .  S
Zr673       O692   2.457       .  S
Zr673       O700   2.446       .  S
Zr673       O688   2.427       .  S
Zr673       O679   2.403       .  S
Zr673       O680   2.414       .  S
Zr673       O681   2.382       .  S
Zr673       O682   2.378       .  S
Zr674       O693   2.437       .  S
Zr674       O686   2.436       .  S
Zr674       O687   2.437       .  S
Zr674       O680   2.398       .  S
Zr674       O681   2.389       .  S
Zr675       O677   2.434       .  S
Zr675       O699   2.437       .  S
Zr675       O701   2.438       .  S
Zr675       O679   2.387       .  S
Zr675       O682   2.384       .  S
Zr676       O702   2.435       .  S
Zr676       O703   2.436       .  S
Zr676       O678   2.437       .  S
Zr676       O679   2.399       .  S
Zr676       O680   2.403       .  S
O677        H714   0.990       .  S
O678        H709   0.990       .  S
O678        H723   0.990       .  S
O680        H706   0.963       .  S
O681       Zr691   2.374       .  S
O682       Zr691   2.378       .  S
O682        H707   0.968       .  S
C683       C1024   1.475   1_455  S
C684        C844   1.478       .  S
C685        C804   1.498       .  S
O686        H722   0.990       .  S
O687        C689   1.286       .  A
O688        C689   1.284       .  A
C689        C824   1.480       .  S
O690       Zr691   2.438       .  S
O690        H719   0.990       .  S
Zr691       O694   2.436       .  S
Zr691       O695   2.438       .  S
Zr691       O696   2.406       .  S
O692        C697   1.290       .  A
O693        H710   0.990       .  S
O693        H725   0.990       .  S
O694        H711   0.990       .  S
O695        H715   0.990       .  S
O695        H724   0.990       .  S
O696        C697   1.280       .  A
C697       C1004   1.493       .  S
O698        H717   0.989       .  S
O698        H721   0.990       .  S
O699        H713   0.990       .  S
O699        H720   0.990       .  S
O700        C704   1.287       .  A
O701        C704   1.286       .  A
O702        H712   0.990       .  S
O703        H716   0.990       .  S
C704       C1124   1.482       .  S
Zr727       O728   2.439       .  S
Zr727       O729   2.422       .  S
Zr727       O730   2.441       .  S
Zr727       O733   2.433       .  S
Zr727       O735   2.383       .  S
Zr727       O736   2.383       .  S
Zr727       O737   2.406       .  S
Zr727       O738   2.405       .  S
O728        H784   0.991       .  S
O728        H792   0.990       .  S
O729        C749   1.282       .  A
O730        C751   1.286       .  A
O731       Zr741   2.428       .  S
O731        C750   1.284       .  A
O732       Zr740   2.441       .  S
O732        C751   1.287       .  A
O733        C750   1.285       .  A
O734       Zr742   2.428       .  S
O734        C749   1.284       .  A
O735       Zr740   2.393       .  S
O735       Zr742   2.375       .  S
O736       Zr741   2.386       .  S
O736       Zr742   2.374       .  S
O736        H771   0.967       .  S
O737       Zr740   2.399       .  S
O737       Zr757   2.403       .  S
O737        H774   0.961       .  S
O738       Zr741   2.396       .  S
O738       Zr757   2.400       .  S
Zr739       O764   2.440       .  S
Zr739       O758   2.434       .  S
Zr739       O766   2.441       .  S
Zr739       O754   2.418       .  S
Zr739       O745   2.395       .  S
Zr739       O746   2.406       .  S
Zr739       O747   2.380       .  S
Zr739       O748   2.384       .  S
Zr740       O759   2.436       .  S
Zr740       O752   2.433       .  S
Zr740       O753   2.437       .  S
Zr740       O746   2.396       .  S
Zr740       O747   2.390       .  S
Zr741       O743   2.434       .  S
Zr741       O765   2.439       .  S
Zr741       O767   2.425       .  S
Zr741       O745   2.392       .  S
Zr741       O748   2.396       .  S
Zr742       O768   2.434       .  S
Zr742       O769   2.435       .  S
Zr742       O744   2.435       .  S
Zr742       O745   2.391       .  S
Zr742       O746   2.388       .  S
O743        H780   0.990       .  S
O744        H775   0.990       .  S
O744        H789   0.990       .  S
O746        H772   0.967       .  S
O747       Zr757   2.374       .  S
O748       Zr757   2.388       .  S
O748        H773   0.970       .  S
C749        C877   1.477   1_655  S
C750        C957   1.478   1_545  S
C751        C797   1.492       .  S
O752        H788   0.990       .  S
O753        C755   1.286       .  A
O754        C755   1.281       .  A
C755        C984   1.480       .  S
O756       Zr757   2.439       .  S
O756        H785   0.990       .  S
Zr757       O760   2.440       .  S
Zr757       O761   2.439       .  S
Zr757       O762   2.421       .  S
O758        C763   1.283       .  A
O759        H776   0.990       .  S
O759        H791   0.990       .  S
O760        H777   0.990       .  S
O761        H781   0.990       .  S
O761        H790   0.990       .  S
O762        C763   1.281       .  A
C763        C904   1.478       .  S
O764        H783   0.990       .  S
O764        H787   0.990       .  S
O765        H779   0.990       .  S
O765        H786   0.990       .  S
O766        C770   1.285       .  A
O767        C770   1.283       .  A
O768        H778   0.990       .  S
O769        H782   0.990       .  S
C770       C1104   1.485       .  S
C793        C794   1.406   1_455  A
C793        C798   1.403   1_455  A
C793        F811   1.358       .  S
C794        C799   1.491   1_654  S
C794        C795   1.406       .  A
C795        C796   1.404       .  A
C795        F800   1.358       .  S
C796        C797   1.410       .  A
C796        F812   1.358       .  S
C797        C798   1.411       .  A
C798        F801   1.358       .  S
C799        C802   1.405       .  A
C799        C806   1.406       .  A
C802        C803   1.402       .  A
C802        F807   1.358   1_455  S
C803        C804   1.413       .  A
C803        F809   1.357       .  S
C804        C805   1.414       .  A
C805        C806   1.404       .  A
C805        F808   1.358       .  S
C806        F810   1.358   1_556  S
C813        C814   1.401       .  A
C813        C818   1.394       .  A
C813        F831   1.358       .  S
C814        C819   1.479       .  S
C814        C815   1.405       .  A
C815        C816   1.401       .  A
C815        F820   1.358       .  S
C816        C817   1.410       .  A
C816        F832   1.357       .  S
C817        C818   1.412       .  A
C818        F821   1.358       .  S
C819        C822   1.403       .  A
C819        C826   1.406       .  A
C822        C823   1.398       .  A
C822        F827   1.358       .  S
C823        C824   1.409       .  A
C823        F829   1.357       .  S
C824        C825   1.407       .  A
C825        C826   1.399       .  A
C825        F828   1.358       .  S
C826        F830   1.358       .  S
C833        C834   1.404       .  A
C833        C838   1.396   1_545  A
C833        F851   1.358       .  S
C834        C839   1.479       .  S
C834        C835   1.405       .  A
C835        C836   1.398   1_545  A
C835        F840   1.358       .  S
C836        C837   1.409       .  A
C836        F852   1.358       .  S
C837        C838   1.410       .  A
C838        F841   1.358       .  S
C839        C842   1.405       .  A
C839        C846   1.404       .  A
C842        C843   1.400       .  A
C842        F847   1.358       .  S
C843        C844   1.408       .  A
C843        F849   1.358       .  S
C844        C845   1.408       .  A
C845        C846   1.396       .  A
C845        F848   1.358       .  S
C846        F850   1.358       .  S
C853        C854   1.405   1_545  A
C853        C858   1.401       .  A
C853        F871   1.358       .  S
C854        C859   1.487   1_554  S
C854        C855   1.405       .  A
C855        C856   1.400   1_565  A
C855        F860   1.358       .  S
C856        C857   1.412       .  A
C856        F872   1.358       .  S
C857        C858   1.413       .  A
C858        F861   1.357       .  S
C859        C862   1.407       .  A
C859        C866   1.406       .  A
C862        C863   1.401       .  A
C862        F867   1.358   1_565  S
C863        C864   1.409       .  A
C863        F869   1.358       .  S
C864        C865   1.408       .  A
C865        C866   1.400       .  A
C865        F868   1.358       .  S
C866        F870   1.358   1_556  S
C873        C874   1.403       .  A
C873        C878   1.397       .  A
C873        F891   1.358       .  S
C874        C879   1.476       .  S
C874        C875   1.404       .  A
C875        C876   1.397       .  A
C875        F880   1.358       .  S
C876        C877   1.409       .  A
C876        F892   1.358   1_455  S
C877        C878   1.408       .  A
C878        F881   1.358       .  S
C879        C882   1.403       .  A
C879        C886   1.402       .  A
C882        C883   1.397       .  A
C882        F887   1.358       .  S
C883        C884   1.412       .  A
C883        F889   1.358       .  S
C884        C885   1.410       .  A
C885        C886   1.395       .  A
C885        F888   1.358       .  S
C886        F890   1.358       .  S
C893        C894   1.402       .  A
C893        C898   1.399       .  A
C893        F911   1.358       .  S
C894        C899   1.475       .  S
C894        C895   1.402       .  A
C895        C896   1.399       .  A
C895        F900   1.358       .  S
C896        C897   1.410       .  A
C896        F912   1.358       .  S
C897        C898   1.411       .  A
C898        F901   1.358       .  S
C899        C902   1.404       .  A
C899        C906   1.402       .  A
C902        C903   1.400       .  A
C902        F907   1.358       .  S
C903        C904   1.409       .  A
C903        F909   1.358       .  S
C904        C905   1.407       .  A
C905        C906   1.397       .  A
C905        F908   1.358       .  S
C906        F910   1.358       .  S
C913        C914   1.405       .  A
C913        C918   1.395       .  A
C913        F931   1.358       .  S
C914        C919   1.476       .  S
C914        C915   1.405       .  A
C915        C916   1.397   1_455  A
C915        F920   1.358       .  S
C916        C917   1.407       .  A
C916        F932   1.357       .  S
C917        C918   1.407   1_655  A
C918        F921   1.358       .  S
C919        C922   1.403       .  A
C919        C926   1.404       .  A
C922        C923   1.396       .  A
C922        F927   1.358       .  S
C923        C924   1.412       .  A
C923        F929   1.358       .  S
C924        C925   1.409       .  A
C925        C926   1.396       .  A
C925        F928   1.358       .  S
C926        F930   1.358       .  S
C933        C934   1.402       .  A
C933        C938   1.398       .  A
C933        F951   1.358       .  S
C934        C939   1.476       .  S
C934        C935   1.403       .  A
C935        C936   1.397       .  A
C935        F940   1.358       .  S
C936        C937   1.410       .  A
C936        F952   1.358       .  S
C937        C938   1.413       .  A
C938        F941   1.358       .  S
C939        C942   1.402       .  A
C939        C946   1.405       .  A
C942        C943   1.394       .  A
C942        F947   1.358       .  S
C943        C944   1.407       .  A
C943        F949   1.358       .  S
C944        C945   1.408       .  A
C945        C946   1.401       .  A
C945        F948   1.358       .  S
C946        F950   1.358       .  S
C953        C954   1.406       .  A
C953        C958   1.400       .  A
C953        F971   1.358       .  S
C954        C959   1.480       .  S
C954        C955   1.404       .  A
C955        C956   1.397       .  A
C955        F960   1.358       .  S
C956        C957   1.408       .  A
C956        F972   1.358       .  S
C957        C958   1.407       .  A
C958        F961   1.358       .  S
C959        C962   1.402       .  A
C959        C966   1.404       .  A
C962        C963   1.399       .  A
C962        F967   1.358       .  S
C963        C964   1.414       .  A
C963        F969   1.357       .  S
C964        C965   1.413       .  A
C965        C966   1.398       .  A
C965        F968   1.358       .  S
C966        F970   1.358       .  S
C973        C974   1.401       .  A
C973        C978   1.395       .  A
C973        F991   1.358       .  S
C974        C979   1.472       .  S
C974        C975   1.403       .  A
C975        C976   1.400       .  A
C975        F980   1.358       .  S
C976        C977   1.409       .  A
C976        F992   1.358       .  S
C977        C978   1.409       .  A
C978        F981   1.358       .  S
C979        C982   1.401       .  A
C979        C986   1.402       .  A
C982        C983   1.399       .  A
C982        F987   1.358       .  S
C983        C984   1.412       .  A
C983        F989   1.358       .  S
C984        C985   1.407       .  A
C985        C986   1.396       .  A
C985        F988   1.358       .  S
C986        F990   1.358       .  S
C993        C994   1.411       .  A
C993        C998   1.401       .  A
C993       F1011   1.358       .  S
C994        C999   1.493       .  S
C994        C995   1.407       .  A
C995        C996   1.397       .  A
C995       F1000   1.357       .  S
C996        C997   1.409       .  A
C996       F1012   1.358       .  S
C997        C998   1.407       .  A
C998       F1001   1.358       .  S
C999       C1002   1.404       .  A
C999       C1006   1.411       .  A
C1002      C1003   1.395       .  A
C1002      F1007   1.358       .  S
C1003      C1004   1.415       .  A
C1003      F1009   1.358       .  S
C1004      C1005   1.409       .  A
C1005      C1006   1.404       .  A
C1005      F1008   1.357       .  S
C1006      F1010   1.358       .  S
C1013      C1014   1.405       .  A
C1013      C1018   1.399   1_545  A
C1013      F1031   1.358       .  S
C1014      C1019   1.472       .  S
C1014      C1015   1.401       .  A
C1015      C1016   1.393   1_545  A
C1015      F1020   1.358       .  S
C1016      C1017   1.410       .  A
C1016      F1032   1.358       .  S
C1017      C1018   1.407       .  A
C1018      F1021   1.358       .  S
C1019      C1022   1.404       .  A
C1019      C1026   1.401       .  A
C1022      C1023   1.398       .  A
C1022      F1027   1.358       .  S
C1023      C1024   1.408       .  A
C1023      F1029   1.358       .  S
C1024      C1025   1.409       .  A
C1025      C1026   1.395       .  A
C1025      F1028   1.357       .  S
C1026      F1030   1.358       .  S
C1033      C1034   1.406       .  A
C1033      C1038   1.398       .  A
C1033      F1051   1.358       .  S
C1034      C1039   1.474       .  S
C1034      C1035   1.403       .  A
C1035      C1036   1.395       .  A
C1035      F1040   1.358       .  S
C1036      C1037   1.409       .  A
C1036      F1052   1.359       .  S
C1037      C1038   1.405       .  A
C1038      F1041   1.358       .  S
C1039      C1042   1.400       .  A
C1039      C1046   1.405       .  A
C1042      C1043   1.393       .  A
C1042      F1047   1.358       .  S
C1043      C1044   1.413       .  A
C1043      F1049   1.358       .  S
C1044      C1045   1.409       .  A
C1045      C1046   1.400       .  A
C1045      F1048   1.358       .  S
C1046      F1050   1.358       .  S
C1053      C1054   1.407       .  A
C1053      C1058   1.398       .  A
C1053      F1071   1.358       .  S
C1054      C1059   1.483       .  S
C1054      C1055   1.407       .  A
C1055      C1056   1.397       .  A
C1055      F1060   1.358       .  S
C1056      C1057   1.405       .  A
C1056      F1072   1.358       .  S
C1057      C1058   1.406       .  A
C1058      F1061   1.358       .  S
C1059      C1062   1.404       .  A
C1059      C1066   1.406       .  A
C1062      C1063   1.396       .  A
C1062      F1067   1.358       .  S
C1063      C1064   1.413   1_655  A
C1063      F1069   1.358       .  S
C1064      C1065   1.412       .  A
C1065      C1066   1.400   1_455  A
C1065      F1068   1.358       .  S
C1066      F1070   1.358       .  S
C1073      C1074   1.407       .  A
C1073      C1078   1.403       .  A
C1073      F1091   1.358       .  S
C1074      C1079   1.491   1_556  S
C1074      C1075   1.408       .  A
C1075      C1076   1.403       .  A
C1075      F1080   1.358   1_556  S
C1076      C1077   1.407       .  A
C1076      F1092   1.358       .  S
C1077      C1078   1.408       .  A
C1078      F1081   1.358       .  S
C1079      C1082   1.404       .  A
C1079      C1086   1.407       .  A
C1082      C1083   1.400       .  A
C1082      F1087   1.358       .  S
C1083      C1084   1.414       .  A
C1083      F1089   1.357       .  S
C1084      C1085   1.413       .  A
C1085      C1086   1.406       .  A
C1085      F1088   1.358       .  S
C1086      F1090   1.358       .  S
C1093      C1094   1.405       .  A
C1093      C1098   1.400       .  A
C1093      F1111   1.358       .  S
C1094      C1099   1.490       .  S
C1094      C1095   1.407       .  A
C1095      C1096   1.403       .  A
C1095      F1100   1.358       .  S
C1096      C1097   1.412       .  A
C1096      F1112   1.357       .  S
C1097      C1098   1.414       .  A
C1098      F1101   1.357       .  S
C1099      C1102   1.408       .  A
C1099      C1106   1.406       .  A
C1102      C1103   1.403       .  A
C1102      F1107   1.358       .  S
C1103      C1104   1.409       .  A
C1103      F1109   1.358       .  S
C1104      C1105   1.408       .  A
C1105      C1106   1.397       .  A
C1105      F1108   1.357       .  S
C1106      F1110   1.358       .  S
C1113      C1114   1.405       .  A
C1113      C1118   1.402       .  A
C1113      F1131   1.358       .  S
C1114      C1119   1.488       .  S
C1114      C1115   1.405       .  A
C1115      C1116   1.400       .  A
C1115      F1120   1.358       .  S
C1116      C1117   1.413       .  A
C1116      F1132   1.358       .  S
C1117      C1118   1.414       .  A
C1118      F1121   1.358       .  S
C1119      C1122   1.407       .  A
C1119      C1126   1.407       .  A
C1122      C1123   1.399       .  A
C1122      F1127   1.358       .  S
C1123      C1124   1.406       .  A
C1123      F1129   1.357       .  S
C1124      C1125   1.408       .  A
C1125      C1126   1.405       .  A
C1125      F1128   1.357       .  S
C1126      F1130   1.358       .  S
C1133      C1134   1.406       .  A
C1133      C1138   1.403       .  A
C1133      F1151   1.358   1_455  S
C1134      C1139   1.489   1_455  S
C1134      C1135   1.406       .  A
C1135      C1136   1.401       .  A
C1135      F1140   1.358       .  S
C1136      C1137   1.408       .  A
C1136      F1152   1.357       .  S
C1137      C1138   1.412       .  A
C1138      F1141   1.358       .  S
C1139      C1142   1.407       .  A
C1139      C1146   1.405       .  A
C1142      C1143   1.404       .  A
C1142      F1147   1.358   1_655  S
C1143      C1144   1.411       .  A
C1143      F1149   1.358       .  S
C1144      C1145   1.408       .  A
C1145      C1146   1.399       .  A
C1145      F1148   1.357       .  S
C1146      F1150   1.358       .  S
C1153      C1154   1.406       .  A
C1153      C1158   1.400       .  A
C1153      F1171   1.358       .  S
C1154      C1159   1.486       .  S
C1154      C1155   1.404       .  A
C1155      C1156   1.398       .  A
C1155      F1160   1.358       .  S
C1156      C1157   1.415       .  A
C1156      F1172   1.358       .  S
C1157      C1158   1.412       .  A
C1158      F1161   1.357       .  S
C1159      C1162   1.407       .  A
C1159      C1166   1.408       .  A
C1162      C1163   1.396       .  A
C1162      F1167   1.358       .  S
C1163      C1164   1.407       .  A
C1163      F1169   1.358       .  S
C1164      C1165   1.406       .  A
C1165      C1166   1.401       .  A
C1165      F1168   1.358       .  S
C1166      F1170   1.358       .  S
C1173      C1174   1.404       .  A
C1173      C1178   1.395       .  A
C1173      F1191   1.358       .  S
C1174      C1179   1.483       .  S
C1174      C1175   1.408       .  A
C1175      C1176   1.401       .  A
C1175      F1180   1.358       .  S
C1176      C1177   1.408       .  A
C1176      F1192   1.358       .  S
C1177      C1178   1.411       .  A
C1178      F1181   1.358       .  S
C1179      C1182   1.407       .  A
C1179      C1186   1.403       .  A
C1182      C1183   1.399       .  A
C1182      F1187   1.358       .  S
C1183      C1184   1.409       .  A
C1183      F1189   1.358       .  S
C1184      C1185   1.412       .  A
C1185      C1186   1.395       .  A
C1185      F1188   1.358       .  S
C1186      F1190   1.358       .  S
C1193      C1194   1.405       .  A
C1193      C1198   1.396       .  A
C1193      F1211   1.358       .  S
C1194      C1199   1.475       .  S
C1194      C1195   1.402   1_545  A
C1195      C1196   1.395       .  A
C1195      F1200   1.359       .  S
C1196      C1197   1.413       .  A
C1196      F1212   1.356       .  S
C1197      C1198   1.408   1_565  A
C1198      F1201   1.358       .  S
C1199      C1202   1.405       .  A
C1199      C1206   1.404       .  A
C1202      C1203   1.396       .  A
C1202      F1207   1.358       .  S
C1203      C1204   1.407       .  A
C1203      F1209   1.358       .  S
C1204      C1205   1.408       .  A
C1205      C1206   1.394       .  A
C1205      F1208   1.358       .  S
C1206      F1210   1.358       .  S
C1213      C1214   1.405       .  A
C1213      C1218   1.399       .  A
C1213      F1231   1.358       .  S
C1214      C1219   1.485       .  S
C1214      C1215   1.406       .  A
C1215      C1216   1.398       .  A
C1215      F1220   1.358       .  S
C1216      C1217   1.409       .  A
C1216      F1232   1.357       .  S
C1217      C1218   1.412       .  A
C1218      F1221   1.358       .  S
C1219      C1222   1.406       .  A
C1219      C1226   1.405       .  A
C1222      C1223   1.397       .  A
C1222      F1227   1.358       .  S
C1223      C1224   1.410       .  A
C1223      F1229   1.357       .  S
C1224      C1225   1.410       .  A
C1225      C1226   1.401       .  A
C1225      F1228   1.358       .  S
C1226      F1230   1.358       .  S
C1233      C1234   1.405       .  A
C1233      C1238   1.397       .  A
C1233      F1251   1.358       .  S
C1234      C1239   1.481       .  S
C1234      C1235   1.405       .  A
C1235      C1236   1.399       .  A
C1235      F1240   1.358       .  S
C1236      C1237   1.409       .  A
C1236      F1252   1.358       .  S
C1237      C1238   1.408       .  A
C1238      F1241   1.358       .  S
C1239      C1242   1.404       .  A
C1239      C1246   1.403       .  A
C1242      C1243   1.399   1_565  A
C1242      F1247   1.358       .  S
C1243      C1244   1.412       .  A
C1243      F1249   1.358       .  S
C1244      C1245   1.412   1_545  A
C1245      C1246   1.398       .  A
C1245      F1248   1.357       .  S
C1246      F1250   1.358       .  S
C1253      C1254   1.404       .  A
C1253      C1258   1.393       .  A
C1253      F1271   1.358       .  S
C1254      C1259   1.478       .  S
C1254      C1255   1.404       .  A
C1255      C1256   1.398       .  A
C1255      F1260   1.358       .  S
C1256      C1257   1.410   1_455  A
C1256      F1272   1.358   1_455  S
C1257      C1258   1.409   1_655  A
C1258      F1261   1.358       .  S
C1259      C1262   1.404       .  A
C1259      C1266   1.405       .  A
C1262      C1263   1.394       .  A
C1262      F1267   1.358       .  S
C1263      C1264   1.407       .  A
C1263      F1269   1.358       .  S
C1264      C1265   1.410       .  A
C1265      C1266   1.399       .  A
C1265      F1268   1.358       .  S
C1266      F1270   1.358       .  S
C1273      C1274   1.407       .  A
C1273      C1278   1.401       .  A
C1273      F1291   1.357       .  S
C1274      C1279   1.483       .  S
C1274      C1275   1.405       .  A
C1275      C1276   1.396       .  A
C1275      F1280   1.358       .  S
C1276      C1277   1.410       .  A
C1276      F1292   1.358       .  S
C1277      C1278   1.407       .  A
C1278      F1281   1.358       .  S
C1279      C1282   1.404       .  A
C1279      C1286   1.405       .  A
C1282      C1283   1.400       .  A
C1282      F1287   1.358       .  S
C1283      C1284   1.411       .  A
C1283      F1289   1.357       .  S
C1284      C1285   1.412       .  A
C1285      C1286   1.399       .  A
C1285      F1288   1.358       .  S
C1286      F1290   1.358       .  S
C1293      C1294   1.405       .  A
C1293      C1298   1.395       .  A
C1293      F1311   1.358       .  S
C1294      C1299   1.486       .  S
C1294      C1295   1.407       .  A
C1295      C1296   1.403       .  A
C1295      F1300   1.358       .  S
C1296      C1297   1.412       .  A
C1296      F1312   1.358       .  S
C1297      C1298   1.409       .  A
C1298      F1301   1.357       .  S
C1299      C1302   1.405       .  A
C1299      C1306   1.407       .  A
C1302      C1303   1.398       .  A
C1302      F1307   1.358       .  S
C1303      C1304   1.412       .  A
C1303      F1309   1.358       .  S
C1304      C1305   1.409       .  A
C1305      C1306   1.400       .  A
C1305      F1308   1.358       .  S
C1306      F1310   1.358       .  S
C1313      C1314   1.402       .  A
C1313      C1318   1.393       .  A
C1313      F1331   1.358       .  S
C1314      C1319   1.474       .  S
C1314      C1315   1.406       .  A
C1315      C1316   1.399       .  A
C1315      F1320   1.358       .  S
C1316      C1317   1.406       .  A
C1316      F1332   1.358   1_565  S
C1317      C1318   1.407       .  A
C1318      F1321   1.358       .  S
C1319      C1322   1.404       .  A
C1319      C1326   1.401       .  A
C1322      C1323   1.397       .  A
C1322      F1327   1.358       .  S
C1323      C1324   1.409       .  A
C1323      F1329   1.358       .  S
C1324      C1325   1.410       .  A
C1325      C1326   1.396       .  A
C1325      F1328   1.356       .  S
C1326      F1330   1.358       .  S
C1333      C1334   1.403       .  A
C1333      C1338   1.397       .  A
C1333      F1351   1.358       .  S
C1334      C1339   1.481       .  S
C1334      C1335   1.404       .  A
C1335      C1336   1.398       .  A
C1335      F1340   1.358       .  S
C1336      C1337   1.413       .  A
C1336      F1352   1.357       .  S
C1337      C1338   1.413       .  A
C1338      F1341   1.358       .  S
C1339      C1342   1.406       .  A
C1339      C1346   1.406       .  A
C1342      C1343   1.397       .  A
C1342      F1347   1.358       .  S
C1343      C1344   1.407       .  A
C1343      F1349   1.358       .  S
C1344      C1345   1.406       .  A
C1345      C1346   1.398       .  A
C1345      F1348   1.357       .  S
C1346      F1350   1.358       .  S
C1353      C1354   1.405       .  A
C1353      C1358   1.400   1_455  A
C1353      F1371   1.358       .  S
C1354      C1359   1.472       .  S
C1354      C1355   1.401       .  A
C1355      C1356   1.392       .  A
C1355      F1360   1.358       .  S
C1356      C1357   1.407   1_455  A
C1356      F1372   1.358       .  S
C1357      C1358   1.409       .  A
C1358      F1361   1.358       .  S
C1359      C1362   1.402       .  A
C1359      C1366   1.402       .  A
C1362      C1363   1.398       .  A
C1362      F1367   1.358       .  S
C1363      C1364   1.410       .  A
C1363      F1369   1.357       .  S
C1364      C1365   1.409       .  A
C1365      C1366   1.394       .  A
C1365      F1368   1.358       .  S
C1366      F1370   1.358       .  S
C1373      C1374   1.406       .  A
C1373      C1378   1.397       .  A
C1373      F1391   1.358       .  S
C1374      C1379   1.477       .  S
C1374      C1375   1.404       .  A
C1375      C1376   1.394       .  A
C1375      F1380   1.358       .  S
C1376      C1377   1.410       .  A
C1376      F1392   1.359       .  S
C1377      C1378   1.407       .  A
C1378      F1381   1.358       .  S
C1379      C1382   1.404       .  A
C1379      C1386   1.405       .  A
C1382      C1383   1.395       .  A
C1382      F1387   1.358       .  S
C1383      C1384   1.412       .  A
C1383      F1389   1.359       .  S
C1384      C1385   1.408       .  A
C1385      C1386   1.396       .  A
C1385      F1388   1.357       .  S
C1386      F1390   1.358       .  S
C1393      C1394   1.406       .  A
C1393      C1398   1.398       .  A
C1393      F1411   1.357       .  S
C1394      C1399   1.496       .  S
C1394      C1395   1.410       .  A
C1395      C1396   1.405       .  A
C1395      F1400   1.358       .  S
C1396      C1397   1.413       .  A
C1396      F1412   1.358       .  S
C1397      C1398   1.413       .  A
C1398      F1401   1.357       .  S
C1399      C1402   1.411       .  A
C1399      C1406   1.408       .  A
C1402      C1403   1.405       .  A
C1402      F1407   1.358       .  S
C1403      C1404   1.408       .  A
C1403      F1409   1.358       .  S
C1404      C1405   1.409       .  A
C1405      C1406   1.399       .  A
C1405      F1408   1.358       .  S
C1406      F1410   1.358       .  S
C1413      C1414   1.407       .  A
C1413      C1418   1.396       .  A
C1413      F1431   1.358       .  S
C1414      C1419   1.476       .  S
C1414      C1415   1.404       .  A
C1415      C1416   1.394       .  A
C1415      F1420   1.358       .  S
C1416      C1417   1.406       .  A
C1416      F1432   1.358       .  S
C1417      C1418   1.404       .  A
C1418      F1421   1.358       .  S
C1419      C1422   1.405       .  A
C1419      C1426   1.401       .  A
C1422      C1423   1.400       .  A
C1422      F1427   1.358       .  S
C1423      C1424   1.412       .  A
C1423      F1429   1.358       .  S
C1424      C1425   1.413       .  A
C1425      C1426   1.393       .  A
C1425      F1428   1.358       .  S
C1426      F1430   1.358       .  S
C1433      C1434   1.405   1_565  A
C1433      C1438   1.398       .  A
C1433      F1451   1.358       .  S
C1434      C1439   1.476       .  S
C1434      C1435   1.404       .  A
C1435      C1436   1.394   1_545  A
C1435      F1440   1.358       .  S
C1436      C1437   1.408       .  A
C1436      F1452   1.359       .  S
C1437      C1438   1.406       .  A
C1438      F1441   1.358       .  S
C1439      C1442   1.403       .  A
C1439      C1446   1.403       .  A
C1442      C1443   1.397       .  A
C1442      F1447   1.358       .  S
C1443      C1444   1.412   1_655  A
C1443      F1449   1.358   1_655  S
C1444      C1445   1.409   1_455  A
C1445      C1446   1.396       .  A
C1445      F1448   1.358       .  S
C1446      F1450   1.358       .  S
C1453      C1454   1.405       .  A
C1453      C1458   1.397       .  A
C1453      F1471   1.358       .  S
C1454      C1459   1.477       .  S
C1454      C1455   1.403       .  A
C1455      C1456   1.398       .  A
C1455      F1460   1.358       .  S
C1456      C1457   1.408       .  A
C1456      F1472   1.358       .  S
C1457      C1458   1.407       .  A
C1458      F1461   1.358       .  S
C1459      C1462   1.399       .  A
C1459      C1466   1.405       .  A
C1462      C1463   1.392       .  A
C1462      F1467   1.358       .  S
C1463      C1464   1.413       .  A
C1463      F1469   1.358       .  S
C1464      C1465   1.412       .  A
C1465      C1466   1.403       .  A
C1465      F1468   1.358       .  S
C1466      F1470   1.358       .  S
C1473      C1474   1.403       .  A
C1473      C1478   1.399       .  A
C1473      F1491   1.358       .  S
C1474      C1479   1.474       .  S
C1474      C1475   1.402       .  A
C1475      C1476   1.396       .  A
C1475      F1480   1.358       .  S
C1476      C1477   1.409       .  A
C1476      F1492   1.358       .  S
C1477      C1478   1.409       .  A
C1478      F1481   1.358       .  S
C1479      C1482   1.402       .  A
C1479      C1486   1.403       .  A
C1482      C1483   1.398   1_655  A
C1482      F1487   1.358       .  S
C1483      C1484   1.408       .  A
C1483      F1489   1.354       .  S
C1484      C1485   1.409   1_455  A
C1485      C1486   1.396       .  A
C1485      F1488   1.358       .  S
C1486      F1490   1.358       .  S
C1493      C1494   1.406       .  A
C1493      C1498   1.401       .  A
C1493      F1511   1.358       .  S
C1494      C1499   1.479       .  S
C1494      C1495   1.403       .  A
C1495      C1496   1.396       .  A
C1495      F1500   1.358       .  S
C1496      C1497   1.407       .  A
C1496      F1512   1.356       .  S
C1497      C1498   1.408       .  A
C1498      F1501   1.358       .  S
C1499      C1502   1.403       .  A
C1499      C1506   1.402       .  A
C1502      C1503   1.399       .  A
C1502      F1507   1.358       .  S
C1503      C1504   1.413       .  A
C1503      F1509   1.358       .  S
C1504      C1505   1.414       .  A
C1505      C1506   1.399       .  A
C1505      F1508   1.358       .  S
C1506      F1510   1.358       .  S
