geometry optimzed in LAMMPS
_audit_creation_date              2020-12-01 
_audit_creation_method            'lammps2cif' 
_symmetry_space_group_name_H-M    'P1' 
_symmetry_Int_Tables_number       1 
_symmetry_cell_setting            triclinic 
loop_ 
_symmetry_equiv_pos_as_xyz 
  x,y,z 
_cell_length_a                    35.85539414 
_cell_length_b                    35.37055919130369 
_cell_length_c                    43.25895613330155 
_cell_angle_alpha                 90.86075595959316 
_cell_angle_beta                  90.0347955249875 
_cell_angle_gamma                 89.96667926286582 
loop_ 
_atom_site_label 
_atom_site_type_symbol 
_atom_site_fract_x 
_atom_site_fract_y 
_atom_site_fract_z 
_atom_site_charge 
O1          O  0.72517651  0.44412699  0.30230689    -0.82200
C2          C  0.69385120  0.49372137  0.42045650     0.97100
O3          O  0.71967300  0.49629589  0.40105658    -0.71300
O4          O  0.75828687  0.45955375  0.35984969    -0.74900
Al5        Al  0.71948674  0.49796333  0.35762906     1.49000
C6          C  0.75671436  0.42387565  0.36340258     0.92400
O7          O  0.65557421  0.38975805  0.35066794    -0.81100
O8          O  0.60988628  0.45183641  0.33836133    -0.74700
Al9        Al  0.68956568  0.42309059  0.32997482     1.90100
O10         O  0.63999595  0.42169350  0.39178292    -0.73800
O11         O  0.63125407  0.51869736  0.35794277    -0.73600
O12         O  0.66058613  0.48835897  0.41159968    -0.79300
O13         O  0.68763322  0.54254604  0.35697671    -0.77500
O14         O  0.68266846  0.46408747  0.35373905    -1.13600
O15         O  0.72532932  0.50416316  0.31394907    -0.72800
C16         C  0.73378876  0.47745537  0.29565910     0.97900
C17         C  0.63953663  0.39121339  0.37657134     0.94300
Al18       Al  0.63925461  0.47009484  0.37322195     1.55600
O19         O  0.72773413  0.40566937  0.35590729    -0.77400
C20         C  0.65262052  0.54645557  0.35488972     0.98500
C21         C  0.61810708  0.44244720  0.31068755     0.93300
O22         O  0.65163786  0.43795907  0.30245116    -0.82800
O23         O  0.82403588  0.42576371  0.05465157    -0.82200
C24         C  0.78653154  0.48922391  0.17092144     0.97100
O25         O  0.81925159  0.48182711  0.16169271    -0.71300
O26         O  0.84098647  0.41498478  0.14282115    -0.74900
Al27       Al  0.83941287  0.46278809  0.12339074     1.49000
C28         C  0.83863893  0.38357360  0.12910589     0.92400
O29         O  0.74845573  0.39837122  0.11043426    -0.81100
O30         O  0.75273112  0.49454933  0.06481811    -0.74700
Al31       Al  0.78660378  0.41354937  0.08321498     1.90100
O32         O  0.71927062  0.45289639  0.11228314    -0.73800
O33         O  0.79028109  0.53469668  0.10636186    -0.73600
O34         O  0.75980425  0.49111663  0.15215642    -0.79300
O35         O  0.84654849  0.51107272  0.10728861    -0.77500
O36         O  0.79508421  0.45581010  0.10531507    -1.13600
O37         O  0.86699687  0.44495499  0.08801900    -0.72800
C38         C  0.85727131  0.43511448  0.06086423     0.97900
C39         C  0.71948355  0.41745109  0.11671722     0.94300
Al40       Al  0.75870293  0.49039267  0.10860525     1.55600
O41         O  0.82035026  0.38066887  0.10440144    -0.77400
C42         C  0.82512015  0.53862093  0.10377695     0.98500
C43         C  0.74428664  0.46751769  0.04684975     0.93300
O44         O  0.75088433  0.43410240  0.05484274    -0.82800
O45         O  0.94813167  0.19640416  0.23539532    -0.82200
C46         C  0.98787814  0.18495194  0.11015310     0.97100
O47         O  0.00735924  0.20189523  0.13037942    -0.71300
O48         O  0.96063848  0.24812599  0.15900641    -0.74900
Al49       Al  0.99609454  0.21166408  0.17334551     1.49000
C50         C  0.92824505  0.25545769  0.16895326     0.92400
O51         O  0.88624098  0.16887698  0.16767025    -0.81100
O52         O  0.96699693  0.10174618  0.19195925    -0.74700
Al53       Al  0.92087568  0.18225239  0.19961343     1.90100
O54         O  0.91665176  0.12096329  0.14856293    -0.73800
O55         O  0.02094934  0.13079884  0.15761496    -0.73600
O56         O  0.96748284  0.15735961  0.11727558    -0.79300
O57         O  0.03539776  0.17927190  0.18739301    -0.77500
O58         O  0.96150941  0.17521261  0.17645163    -1.13600
O59         O  0.99264694  0.23020374  0.21520569    -0.72800
C60         C  0.97430488  0.21982936  0.23840027     0.97900
C61         C  0.88634135  0.13811516  0.15272748     0.94300
Al62       Al  0.96772809  0.13168299  0.15547600     1.55600
O63         O  0.91294966  0.23355349  0.18797465    -0.77400
C64         C  0.04341665  0.14739987  0.17563962     0.98500
C65         C  0.94175844  0.10348095  0.21240211     0.93300
O66         O  0.92089431  0.13215676  0.21528382    -0.82800
O67         O  0.93317998  0.33065372  0.47907627    -0.82200
C68         C  0.98443811  0.27924975  0.36318068     0.97100
O69         O  0.98113566  0.31360886  0.37123708    -0.71300
O70         O  0.91829917  0.34199547  0.39064813    -0.74900
Al71       Al  0.96607557  0.33844305  0.40900260     1.49000
C72         C  0.88812879  0.34327846  0.40519367     0.92400
O73         O  0.89686332  0.25280572  0.42655373    -0.81100
O74         O  0.99396634  0.25331283  0.47135527    -0.74700
Al75       Al  0.91627140  0.29200363  0.45213514     1.90100
O76         O  0.94858700  0.21878234  0.42598508    -0.73800
O77         O  0.03426521  0.28484967  0.42649191    -0.73600
O78         O  0.98635486  0.25354265  0.38302337    -0.79300
O79         O  0.01472243  0.34325790  0.42372869    -0.77500
O80         O  0.95714111  0.29561993  0.42904376    -1.13600
O81         O  0.95149026  0.37057063  0.44330228    -0.72800
C82         C  0.94125462  0.36370908  0.47072044     0.97900
C83         C  0.91366744  0.22184843  0.42160262     0.94300
Al84       Al  0.98831922  0.25606044  0.42689423     1.55600
O85         O  0.88557794  0.32702132  0.43070241    -0.77400
C86         C  0.04063718  0.31994407  0.42706468     0.98500
C87         C  0.96699543  0.24868543  0.48978808     0.93300
O88         O  0.93467251  0.25648941  0.48088450    -0.82800
O89         O  0.65338892  0.04096191  0.04967619    -0.82200
C90         C  0.69014919  0.98339277  0.16649265     0.97100
O91         O  0.65711566  0.98898422  0.15705426    -0.71300
O92         O  0.63496416  0.05449008  0.13722912    -0.74900
Al93       Al  0.63681056  0.00640611  0.11812357     1.49000
C94         C  0.63782139  0.08540480  0.12374728     0.92400
O95         O  0.72742752  0.07075162  0.10624790    -0.81100
O96         O  0.72375176  0.97228193  0.06030634    -0.74700
Al97       Al  0.68993306  0.05418350  0.07861874     1.90100
O98         O  0.75750857  0.01649816  0.10738082    -0.73800
O99         O  0.68616454  0.93389317  0.10195676    -0.73600
O100        O  0.71662588  0.98051671  0.14748984    -0.79300
O101        O  0.63000667  0.95780002  0.10204316    -0.77500
O102        O  0.68128821  0.01281730  0.10050349    -1.13600
O103        O  0.60938263  0.02343522  0.08205085    -0.72800
C104        C  0.61970103  0.03350418  0.05522273     0.97900
C105        C  0.75675288  0.05221107  0.11164417     0.94300
Al106      Al  0.71780911  0.97857633  0.10408471     1.55600
O107        O  0.65611747  0.08752375  0.09917446    -0.77400
C108        C  0.65136655  0.93013293  0.09834959     0.98500
C109        C  0.73181785  0.99884757  0.04248145     0.93300
O110        O  0.72552424  0.03245105  0.05106470    -0.82800
O111        O  0.75846665  0.02978083  0.29435415    -0.82200
C112        C  0.78548022  0.99292288  0.41518784     0.97100
O113        O  0.75954744  0.99057864  0.39572293    -0.71300
O114        O  0.72201309  0.02146343  0.35092934    -0.74900
Al115      Al  0.76107575  0.98293238  0.35270565     1.49000
C116        C  0.72293390  0.05750526  0.35213019     0.92400
O117        O  0.82434735  0.08942685  0.34325849    -0.81100
O118        O  0.87224150  0.02597057  0.33336454    -0.74700
Al119      Al  0.79229866  0.05431923  0.32222158     1.90100
O120        O  0.84036204  0.06041188  0.38499578    -0.73800
O121        O  0.84911367  0.96102299  0.35401340    -0.73600
O122        O  0.81917021  0.99521711  0.40666123    -0.79300
O123        O  0.79243269  0.93805621  0.35611855    -0.77500
O124        O  0.79835177  0.01577888  0.34779772    -1.13600
O125        O  0.75729102  0.97118586  0.30956935    -0.72800
C126        C  0.75032933  0.99559191  0.28945894     0.97900
C127        C  0.83872193  0.09036954  0.36974913     0.94300
Al128      Al  0.84145213  0.01080636  0.36802373     1.55600
O129        O  0.75264497  0.07457284  0.34562622    -0.77400
C130        C  0.82732607  0.93328158  0.35361145     0.98500
C131        C  0.86481229  0.03273011  0.30528974     0.93300
O132        O  0.83146637  0.03736946  0.29668408    -0.82800
O133        O  0.54731443  0.14839930  0.47338401    -0.82200
C134        C  0.48850376  0.18655145  0.35634978     0.97100
O135        O  0.49144517  0.15347452  0.36687698    -0.71300
O136        O  0.55764795  0.13134064  0.38467561    -0.74900
Al137      Al  0.51127711  0.13387846  0.40504628     1.49000
C138        C  0.58905694  0.13403699  0.39729987     0.92400
O139        O  0.57714236  0.22577610  0.41979603    -0.81100
O140        O  0.47943755  0.22394575  0.46186649    -0.74700
Al141      Al  0.56019080  0.18668017  0.44541266     1.90100
O142        O  0.52424652  0.25659143  0.41632195    -0.73800
O143        O  0.44176460  0.18594384  0.41874201    -0.73600
O144        O  0.48925201  0.21492634  0.37434905    -0.79300
O145        O  0.46456388  0.12893120  0.42321318    -0.77500
O146        O  0.51930984  0.17915332  0.42266666    -1.13600
O147        O  0.53020758  0.10520847  0.43922073    -0.72800
C148        C  0.54103829  0.11437272  0.46615132     0.97900
C149        C  0.55950230  0.25542981  0.41330004     0.94300
Al150      Al  0.48648418  0.21703292  0.41816143     1.55600
O151        O  0.59254466  0.15267220  0.42230549    -0.77400
C152        C  0.43741702  0.15124943  0.42431897     0.98500
C153        C  0.50496789  0.23023373  0.48134078     0.93300
O154        O  0.53833385  0.22210390  0.47449440    -0.82800
O155        O  0.52880027  0.24670786  0.22647624    -0.82200
C156        C  0.48949546  0.28572575  0.10840463     0.97100
O157        O  0.48507733  0.25835550  0.12627429    -0.71300
O158        O  0.51611435  0.21545298  0.16758036    -0.74900
Al159      Al  0.48027119  0.25658587  0.16968968     1.49000
C160        C  0.55144432  0.21486052  0.16563712     0.92400
O161        O  0.58958954  0.31491183  0.18209304    -0.81100
O162        O  0.52890205  0.36482918  0.19624441    -0.74700
Al163      Al  0.55366948  0.28203999  0.20077693     1.90100
O164        O  0.56010523  0.33653957  0.14215061    -0.73800
O165        O  0.46361638  0.34622090  0.17367370    -0.73600
O166        O  0.49521780  0.31875095  0.11917365    -0.79300
O167        O  0.43791957  0.29020872  0.17014666    -0.77500
O168        O  0.51502174  0.29226905  0.17639492    -1.13600
O169        O  0.47043982  0.24959945  0.21282131    -0.72800
C170        C  0.49493166  0.24020222  0.23207647     0.97900
C171        C  0.58973662  0.33272875  0.15716406     0.94300
Al172      Al  0.51181837  0.33764593  0.15925482     1.55600
O173        O  0.57014890  0.24352288  0.17389330    -0.77400
C174        C  0.43546636  0.32532949  0.17530724     0.98500
C175        C  0.53689792  0.35451936  0.22356452     0.93300
O176        O  0.54014572  0.31994119  0.22958636    -0.82800
O177        O  0.14820262  0.92646744  0.22621322    -0.82200
C178        C  0.20157451  0.98329145  0.11455443     0.97100
O179        O  0.16729992  0.98010283  0.12089404    -0.71300
O180        O  0.14482504  0.91307629  0.13605410    -0.74900
Al181      Al  0.14238156  0.96035036  0.15681206     1.49000
C182        C  0.14386328  0.88191915  0.14946273     0.92400
O183        O  0.22908616  0.89417197  0.17800514    -0.81100
O184        O  0.22232481  0.99224330  0.22295246    -0.74700
Al185      Al  0.18818098  0.91159019  0.20121942     1.90100
O186        O  0.25986660  0.94790342  0.17889272    -0.73800
O187        O  0.18963966  0.03155551  0.17816513    -0.73600
O188        O  0.22564966  0.98475368  0.13563748    -0.79300
O189        O  0.13336070  0.00797193  0.17401454    -0.77500
O190        O  0.18388321  0.95310605  0.17876596    -1.13600
O191        O  0.10944871  0.94162190  0.18872217    -0.72800
C192        C  0.11570282  0.93341776  0.21674282     0.97900
C193        C  0.25923696  0.91220925  0.17480018     0.94300
Al194      Al  0.22113165  0.98656314  0.17883538     1.55600
O195        O  0.15660785  0.87913220  0.17646320    -0.77400
C196        C  0.15453295  0.03561259  0.17863531     0.98500
C197        C  0.22878416  0.96508702  0.24079535     0.93300
O198        O  0.22034046  0.93212861  0.23219034    -0.82800
O199        O  0.25782790  0.94206321  0.48231963    -0.82200
C200        C  0.28434547  0.98936699  0.36482240     0.97100
O201        O  0.25818648  0.99044666  0.38410478    -0.71300
O202        O  0.21996866  0.95770231  0.42712936    -0.74900
Al203      Al  0.26036553  0.99437146  0.42742573     1.49000
C204        C  0.22010455  0.92215386  0.42266924     0.92400
O205        O  0.32069169  0.88443470  0.42776641    -0.81100
O206        O  0.37052566  0.94497534  0.44248223    -0.74700
Al207      Al  0.28992032  0.91864058  0.45228080     1.90100
O208        O  0.33601159  0.91868981  0.38856315    -0.73800
O209        O  0.34884579  0.01268934  0.42806677    -0.73600
O210        O  0.31790818  0.98668675  0.37338433    -0.79300
O211        O  0.29307855  0.03807673  0.42661763    -0.77500
O212        O  0.29672225  0.95976691  0.42988332    -1.13600
O213        O  0.25749348  0.00204387  0.47113389    -0.72800
C214        C  0.25036885  0.97595897  0.48971648     0.97900
C215        C  0.33492701  0.88704011  0.40114745     0.94300
Al216      Al  0.33959733  0.96555346  0.40988145     1.55600
O217        O  0.24919265  0.90307864  0.42775152    -0.77400
C218        C  0.32793386  0.04103225  0.43056421     0.98500
C219        C  0.36344184  0.93585915  0.47010208     0.93300
O220        O  0.33019471  0.93086364  0.47873876    -0.81200
O221        O  0.43272018  0.64597474  0.29397937    -0.82200
C222        C  0.48358611  0.69268947  0.41106903     0.97100
O223        O  0.48350074  0.65856425  0.40178581    -0.71300
O224        O  0.41851892  0.63349586  0.38309079    -0.74900
Al225      Al  0.46585948  0.63569154  0.36357820     1.49000
C226        C  0.38814017  0.63206145  0.36864540     0.92400
O227        O  0.39616070  0.72212780  0.34751539    -0.81100
O228        O  0.49556826  0.72243973  0.30634504    -0.74700
Al229      Al  0.41616538  0.68380535  0.32155375     1.90100
O230        O  0.44719931  0.75628515  0.34987139    -0.73800
O231        O  0.53358276  0.68940812  0.35141977    -0.73600
O232        O  0.48224335  0.71951077  0.39245995    -0.79300
O233        O  0.51388998  0.63106208  0.34662290    -0.77500
O234        O  0.45662291  0.67924599  0.34505507    -1.13600
O235        O  0.44932246  0.60459209  0.32904834    -0.72800
C236        C  0.44005818  0.61248998  0.30156875     0.97900
C237        C  0.41209632  0.75304241  0.35382733     0.94300
Al238      Al  0.48728243  0.71862216  0.34959970     1.55600
O239        O  0.38538021  0.64821132  0.34293824    -0.77400
C240        C  0.54010041  0.65454907  0.34688826     0.98500
C241        C  0.46981659  0.72864077  0.28727058     0.93300
O242        O  0.43657904  0.71998345  0.29356898    -0.82800
O243        O  0.44182796  0.77383275  0.03998267    -0.82200
C244        C  0.48982637  0.78354047  0.16319804     0.97100
O245        O  0.50665985  0.76484653  0.14234095    -0.71300
O246        O  0.45775284  0.72050618  0.11545247    -0.74900
Al247      Al  0.49317473  0.75551621  0.09974127     1.49000
C248        C  0.42514219  0.71391606  0.10589211     0.92400
O249        O  0.38657796  0.79992895  0.11174645    -0.81100
O250        O  0.46630796  0.86576812  0.08059088    -0.74700
Al251      Al  0.41729701  0.78727663  0.07708387     1.90100
O252        O  0.41838661  0.84879550  0.12722741    -0.73800
O253        O  0.52119033  0.83590724  0.11354384    -0.73600
O254        O  0.47065855  0.81210900  0.15603939    -0.79300
O255        O  0.53337810  0.78621358  0.08446309    -0.77500
O256        O  0.45980300  0.79311871  0.09789024    -1.13600
O257        O  0.48576338  0.73735618  0.05793253    -0.72800
C258        C  0.46571802  0.74824577  0.03570285     0.97900
C259        C  0.38825825  0.83057745  0.12680447     0.94300
Al260      Al  0.46863165  0.83677334  0.11773170     1.55600
O261        O  0.40936647  0.73585362  0.08736511    -0.77400
C262        C  0.54312716  0.81751963  0.09637903     0.98500
C263        C  0.43867230  0.86490695  0.06235113     0.93300
O264        O  0.41603716  0.83758063  0.06215542    -0.82800
O265        O  0.03162210  0.71582490  0.04512050    -0.82200
C266        C  0.99220736  0.69485023  0.16569341     0.97100
O267        O  0.99079151  0.72028402  0.14582407    -0.71300
O268        O  0.02177357  0.75595252  0.10060209    -0.74900
Al269      Al  0.98400277  0.71671653  0.10299394     1.49000
C270        C  0.05713086  0.75525137  0.10207050     0.92400
O271        O  0.08904141  0.65169256  0.09556342    -0.81100
O272        O  0.02823146  0.60315465  0.08718231    -0.74700
Al273      Al  0.05508449  0.68319142  0.07353991     1.90100
O274        O  0.05927408  0.63849961  0.13804981    -0.73800
O275        O  0.96260153  0.62767165  0.10501812    -0.73600
O276        O  0.99335527  0.66032790  0.15777220    -0.79300
O277        O  0.93985749  0.68526483  0.10673884    -0.77500
O278        O  0.01648939  0.67862901  0.09901882    -1.13600
O279        O  0.97346253  0.71874989  0.05987447    -0.72800
C280        C  0.99828906  0.72500477  0.04004314     0.97900
C281        C  0.08890401  0.63860401  0.12244375     0.94300
Al282      Al  0.01093449  0.63611042  0.12019728     1.55600
O283        O  0.07440817  0.72481581  0.09617175    -0.77400
C284        C  0.93528308  0.64988817  0.10407045     0.98500
C285        C  0.03571337  0.60872218  0.05898155     0.93300
O286        O  0.03880882  0.64182101  0.04870821    -0.82800
O287        O  0.04883519  0.82216484  0.30030773    -0.82200
C288        C  0.99231299  0.78465217  0.41725144     0.97100
O289        O  0.99645167  0.81811431  0.40772283    -0.71300
O290        O  0.06221749  0.83996899  0.38853775    -0.74900
Al291      Al  0.01461451  0.83842914  0.36934401     1.49000
C292        C  0.09299555  0.83739314  0.37476056     0.92400
O293        O  0.07857081  0.74706375  0.35566200    -0.81100
O294        O  0.98091785  0.75130528  0.31168701    -0.74700
Al295      Al  0.06206025  0.78495536  0.32881646     1.90100
O296        O  0.02534033  0.71589730  0.35618255    -0.73800
O297        O  0.94376501  0.78791720  0.35612659    -0.73600
O298        O  0.99129975  0.75691690  0.39867477    -0.79300
O299        O  0.96660180  0.84498809  0.35295500    -0.77500
O300        O  0.02135811  0.79340786  0.35139982    -1.13600
O301        O  0.03188170  0.86629346  0.33409482    -0.72800
C302        C  0.04120264  0.85619321  0.30688196     0.97900
C303        C  0.06046011  0.71711812  0.36027578     0.94300
Al304      Al  0.98798881  0.75615381  0.35533931     1.55600
O305        O  0.09463682  0.81939261  0.34962393    -0.77400
C306        C  0.93925348  0.82296445  0.35227899     0.98500
C307        C  0.00705167  0.74361470  0.29317471     0.93300
O308        O  0.04039711  0.74867638  0.30146708    -0.82800
O309        O  0.32634255  0.54362870  0.22072439    -0.82200
C310        C  0.28228908  0.48076926  0.10607172     0.97100
O311        O  0.31544471  0.48694061  0.11458624    -0.71300
O312        O  0.33629466  0.55486069  0.13096723    -0.74900
Al313      Al  0.33713714  0.50775727  0.15138572     1.49000
C314        C  0.33680340  0.58605622  0.14513793     0.92400
O315        O  0.24825375  0.57337160  0.16797129    -0.81100
O316        O  0.25257424  0.47724111  0.21305469    -0.74700
Al317      Al  0.28766405  0.55720370  0.19361383     1.90100
O318        O  0.21849881  0.51908622  0.16651093    -0.73800
O319        O  0.28863052  0.43682780  0.17076599    -0.73600
O320        O  0.25624050  0.48035991  0.12548310    -0.79300
O321        O  0.34487553  0.46071295  0.16853542    -0.77500
O322        O  0.29402576  0.51508894  0.17115523    -1.13600
O323        O  0.36725087  0.52708730  0.18485631    -0.72800
C324        C  0.35940579  0.53609515  0.21257586     0.97900
C325        C  0.21885484  0.55455660  0.16250429     0.94300
Al326      Al  0.25716752  0.48114137  0.16908343     1.55600
O327        O  0.32094360  0.58893395  0.17104170    -0.77400
C328        C  0.32356822  0.43328027  0.17295082     0.98500
C329        C  0.24518962  0.50460412  0.23105124     0.93300
O330        O  0.25323671  0.53759395  0.22301784    -0.82800
O331        O  0.22910441  0.52883981  0.47267192    -0.82200
C332        C  0.19100048  0.48354066  0.35570260     0.97100
O333        O  0.21753070  0.47930682  0.37424708    -0.71300
O334        O  0.25925740  0.51367307  0.41486676    -0.74900
Al335      Al  0.21898714  0.47645367  0.41740791     1.49000
C336        C  0.25828289  0.54940025  0.41128477     0.92400
O337        O  0.15953530  0.58629531  0.42820235    -0.81100
O338        O  0.11202910  0.52522762  0.44183365    -0.74700
Al339      Al  0.19308122  0.55168290  0.44683545     1.90100
O340        O  0.14013881  0.55632045  0.38746262    -0.73800
O341        O  0.13049454  0.45839073  0.41945778    -0.73600
O342        O  0.15822462  0.49002443  0.36543447    -0.79300
O343        O  0.18607748  0.43284045  0.41816101    -0.77500
O344        O  0.18348125  0.51146892  0.42289517    -1.13600
O345        O  0.22526171  0.46897976  0.46060395    -0.72800
C346        C  0.23470472  0.49488227  0.47921858     0.97900
C347        C  0.14262304  0.58660313  0.40287254     0.94300
Al348      Al  0.13897855  0.50741961  0.40501824     1.55600
O349        O  0.23006659  0.56829365  0.41955241    -0.77400
C350        C  0.15122391  0.42999681  0.42190509     0.98500
C351        C  0.12235723  0.53355362  0.46936088     0.93300
O352        O  0.15647418  0.53782289  0.47566939    -0.82800
C353        C  0.23518194  0.46415085  0.27689028    -0.06200
C354        C  0.22748028  0.49824234  0.26183107    -0.00300
C355        C  0.20386799  0.52537416  0.27679153    -0.08800
C356        C  0.18993528  0.51758498  0.30648908    -0.06200
C357        C  0.19977588  0.48472269  0.32220356    -0.00300
C358        C  0.22231045  0.45717953  0.30708311    -0.08700
C359        C  0.23320357  0.42074664  0.32285181     0.61600
H360        H  0.25306609  0.44366525  0.26543178     0.12300
H361        H  0.17318768  0.53847756  0.31866709     0.12300
C362        C  0.19378859  0.56294608  0.26227047     0.61900
F363        F  0.24854007  0.39484339  0.30217398    -0.23300
F364        F  0.20207935  0.40436225  0.33595751    -0.20600
F365        F  0.25933755  0.42822945  0.34563488    -0.20300
F366        F  0.18054016  0.55707759  0.23258808    -0.20400
F367        F  0.22486765  0.58605504  0.26154679    -0.20700
F368        F  0.16631886  0.58190653  0.27882343    -0.23400
C369        C  0.29487455  0.49986659  0.05253834    -0.06200
C370        C  0.27369653  0.47756132  0.07257430    -0.00300
C371        C  0.24349706  0.45600672  0.06037740    -0.08800
C372        C  0.23326383  0.46093047  0.02929567    -0.06200
C373        C  0.25200101  0.48649257  0.01043154    -0.00300
C374        C  0.28447180  0.50485468  0.02160023    -0.08700
C375        C  0.30516319  0.53250548  0.50124574     0.61600
H376        H  0.31847045  0.51543971  0.06176858     0.12300
H377        H  0.20897095  0.44655973  0.02005422     0.12300
C378        C  0.22173047  0.42825218  0.07975661     0.61900
F379        F  0.33844515  0.54259942  0.51531109    -0.23300
F380        F  0.28555902  0.56528439  0.49533354    -0.20600
F381        F  0.31363677  0.51419811  0.47372658    -0.20300
F382        F  0.19850986  0.44758257  0.09990551    -0.20400
F383        F  0.24593880  0.40594199  0.09633075    -0.20700
F384        F  0.19990614  0.40450095  0.06156286    -0.23400
C385        C  0.10011484  0.68606407  0.39857696    -0.06200
C386        C  0.08105313  0.68342900  0.37044794    -0.00300
C387        C  0.08467439  0.65052357  0.35178406    -0.08800
C388        C  0.10561771  0.62002793  0.36305396    -0.06200
C389        C  0.12381573  0.62174055  0.39194787    -0.00300
C390        C  0.12174473  0.65602802  0.40981915    -0.08700
C391        C  0.14175799  0.66171429  0.44060929     0.61600
H392        H  0.09760556  0.71217542  0.41182009     0.12300
H393        H  0.10782943  0.59444684  0.34914556     0.12300
C394        C  0.06783285  0.64830280  0.31959281     0.61900
F395        F  0.13720999  0.69802457  0.45243126    -0.23300
F396        F  0.17963190  0.65585813  0.43681976    -0.20600
F397        F  0.12774432  0.63698775  0.46218500    -0.20300
F398        F  0.08156813  0.67749961  0.30200157    -0.20400
F399        F  0.02945585  0.65119365  0.32136834    -0.20700
F400        F  0.07643682  0.61456903  0.30456574    -0.23400
C401        C  0.11786288  0.58113878  0.14244933    -0.06200
C402        C  0.12232147  0.61889952  0.13398518    -0.00300
C403        C  0.15824891  0.63527017  0.13429948    -0.08800
C404        C  0.18867133  0.61304291  0.14357014    -0.06200
C405        C  0.18457922  0.57491973  0.15207789    -0.00300
C406        C  0.14825965  0.55840999  0.15105437    -0.08700
C407        C  0.14086176  0.51712448  0.15833996     0.61600
H408        H  0.09006265  0.56919221  0.14125642     0.12300
H409        H  0.21620913  0.62556434  0.14402999     0.12300
C410        C  0.16429529  0.67639405  0.12608850     0.61900
F411        F  0.15174778  0.50947548  0.18825489    -0.23300
F412        F  0.16016925  0.49415559  0.13780636    -0.20600
F413        F  0.10345770  0.50788816  0.15573142    -0.20300
F414        F  0.14206307  0.69907093  0.14472480    -0.20400
F415        F  0.15535001  0.68212064  0.09543647    -0.20700
F416        F  0.20098736  0.68746772  0.13039684    -0.23400
C417        C  0.07885746  0.55681563  0.04893033    -0.06200
C418        C  0.04749324  0.57688417  0.03899507    -0.00300
C419        C  0.03546787  0.57282258  0.00805517    -0.08800
C420        C  0.06187102  0.56214200  0.48408136    -0.06200
C421        C  0.09431807  0.54322774  0.49361772    -0.00300
C422        C  0.10230723  0.53781609  0.02783673    -0.08700
C423        C  0.13680799  0.51811087  0.04023327     0.61600
H424        H  0.08724855  0.55953429  0.07296068     0.12300
H425        H  0.05623625  0.56470732  0.45957031     0.12300
C426        C  0.99850108  0.58783880  0.99659260     0.61900
F427        F  0.16799589  0.54043683  0.03618249    -0.23300
F428        F  0.13994062  0.48507060  0.52303835    -0.20600
F429        F  0.13126583  0.51148797  0.56959690    -0.20300
F430        F  0.00471207  0.61578835  0.97519036    -0.20400
F431        F  0.97669621  0.60240223  0.02028307    -0.20700
F432        F  0.99134302  0.58774658  0.46709699    -0.23400
C433        C  0.96773740  0.69630395  0.21967075    -0.06200
C434        C  0.99556368  0.70627622  0.19849534    -0.00300
C435        C  0.02648334  0.72792263  0.20865779    -0.08800
C436        C  0.02849537  0.73900285  0.23966266    -0.06200
C437        C  0.00051939  0.73004210  0.26099712    -0.00300
C438        C  0.96930659  0.70840874  0.25094746    -0.08700
C439        C  0.93811362  0.69785966  0.27285038     0.61600
H440        H  0.94432643  0.67984572  0.21135854     0.12300
H441        H  0.05187251  0.75612789  0.24726525     0.12300
C442        C  0.05676715  0.74080737  0.18672675     0.61900
F443        F  0.91217344  0.67430240  0.25874019    -0.23300
F444        F  0.91970610  0.73015937  0.28283337    -0.20600
F445        F  0.95262914  0.67921568  0.29803315    -0.20300
F446        F  0.08722203  0.75600839  0.20219276    -0.20400
F447        F  0.04222425  0.76841590  0.16810880    -0.20700
F448        F  0.06932765  0.71079176  0.16877152    -0.23400
C449        C  0.96058432  0.75335658  0.46080085    -0.06200
C450        C  0.98964474  0.77684417  0.45067981    -0.00300
C451        C  0.01825833  0.78757154  0.47158390    -0.08800
C452        C  0.01664535  0.77197685  0.00204020    -0.06200
C453        C  0.99023468  0.74506037  0.01111414    -0.00300
C454        C  0.96007712  0.73858967  0.49093248    -0.08700
C455        C  0.93072221  0.70735756  0.00028616     0.61600
H456        H  0.93886986  0.74568404  0.44446416     0.12300
H457        H  0.03879347  0.77940762  0.01806567     0.12300
C458        C  0.05092757  0.81191907  0.46181641     0.61900
F459        F  0.90287215  0.70707549  0.47720267    -0.23300
F460        F  0.91104325  0.72157666  0.02536406    -0.20600
F461        F  0.94709362  0.67343520  0.00811625    -0.20300
F462        F  0.03821790  0.84689784  0.45262237    -0.20400
F463        F  0.06964598  0.79417473  0.43772291    -0.20700
F464        F  0.07618166  0.81784959  0.48562546    -0.23400
C465        C  0.38953300  0.65573877  0.09383740    -0.06200
C466        C  0.40430032  0.68044345  0.11636199    -0.00300
C467        C  0.39606543  0.67471773  0.14787276    -0.08800
C468        C  0.37340385  0.64398510  0.15584683    -0.06200
C469        C  0.35890212  0.61861576  0.13347762    -0.00300
C470        C  0.36744059  0.62436592  0.10178017    -0.08700
C471        C  0.35361931  0.59788344  0.07631932     0.61600
H472        H  0.39599858  0.66104092  0.06984319     0.12300
H473        H  0.36753836  0.63910529  0.17999879     0.12300
C474        C  0.41080455  0.70120849  0.17295086     0.61900
F475        F  0.36111538  0.61172599  0.04719938    -0.23300
F476        F  0.31543709  0.59316447  0.07870518    -0.20600
F477        F  0.37124745  0.56326834  0.07871298    -0.20300
F478        F  0.40084662  0.73808962  0.16670401    -0.20400
F479        F  0.44912414  0.69846613  0.17402557    -0.20700
F480        F  0.39702940  0.69246201  0.20186574    -0.23400
C481        C  0.31988623  0.62175274  0.37125808    -0.06200
C482        C  0.35565103  0.61047457  0.38074162    -0.00300
C483        C  0.35929516  0.57714521  0.39858953    -0.08800
C484        C  0.32680705  0.55748523  0.40711863    -0.06200
C485        C  0.29109357  0.56985063  0.39881389    -0.00300
C486        C  0.28753564  0.60186090  0.37959929    -0.08700
C487        C  0.25006588  0.61432398  0.36674930     0.61600
H488        H  0.31736204  0.64662496  0.35710850     0.12300
H489        H  0.32907256  0.53223624  0.42072251     0.12300
C490        C  0.39701349  0.56133944  0.40798438     0.61900
F491        F  0.25418255  0.64021687  0.34330580    -0.23300
F492        F  0.22905276  0.63120186  0.38988105    -0.20600
F493        F  0.23103200  0.58344525  0.35464997    -0.20300
F494        F  0.41470483  0.58635838  0.42800095    -0.20400
F495        F  0.41878803  0.55525802  0.38201033    -0.20700
F496        F  0.39375754  0.52715224  0.42293554    -0.23400
C497        C  0.40668913  0.55446065  0.28836824    -0.06200
C498        C  0.43208345  0.58218594  0.27895617    -0.00300
C499        C  0.44046698  0.58568674  0.24709599    -0.08800
C500        C  0.41921481  0.56506114  0.22558121    -0.06200
C501        C  0.38952989  0.54230346  0.23505188    -0.00300
C502        C  0.38515215  0.53417368  0.26675867    -0.08700
C503        C  0.35668054  0.50634076  0.27884436     0.61600
H504        H  0.40080782  0.55127499  0.31280128     0.12300
H505        H  0.42322403  0.57018562  0.20112794     0.12300
C506        C  0.46986102  0.61196621  0.23435888     0.61900
F507        F  0.37360550  0.48281705  0.29992878    -0.23300
F508        F  0.34164280  0.48369470  0.25565865    -0.20600
F509        F  0.32819635  0.52595337  0.29350449    -0.20300
F510        F  0.48908427  0.63131293  0.25711554    -0.20400
F511        F  0.45314223  0.63803899  0.21536143    -0.20700
F512        F  0.49533003  0.59108630  0.21720814    -0.23400
C513        C  0.46601770  0.79053100  0.21660610    -0.06200
C514        C  0.49025769  0.77123192  0.19616116    -0.00300
C515        C  0.51110735  0.73988663  0.20750534    -0.08800
C516        C  0.50433164  0.72769003  0.23787926    -0.06200
C517        C  0.47823473  0.74566477  0.25711811    -0.00300
C518        C  0.45994632  0.77859021  0.24692687    -0.08700
C519        C  0.43581987  0.80232944  0.26853177     0.61600
H520        H  0.45089254  0.81495221  0.20854280     0.12300
H521        H  0.51850391  0.70302786  0.24660677     0.12300
C522        C  0.54020026  0.71883563  0.18831211     0.61900
F523        F  0.42365013  0.83527812  0.25486757    -0.23300
F524        F  0.45668614  0.81230437  0.29421248    -0.20600
F525        F  0.40468783  0.78230032  0.27752660    -0.20300
F526        F  0.56593566  0.74412127  0.17708211    -0.20400
F527        F  0.52349299  0.69955227  0.16399337    -0.20700
F528        F  0.55953238  0.69262428  0.20559366    -0.23400
C529        C  0.44515571  0.70717101  0.45590971    -0.06200
C530        C  0.48107980  0.70225086  0.44411229    -0.00300
C531        C  0.51235400  0.71267059  0.46211329    -0.08800
C532        C  0.50646404  0.72766481  0.49212550    -0.06200
C533        C  0.46962703  0.73020211  0.00448382    -0.00300
C534        C  0.43900037  0.72676252  0.98357968    -0.08700
C535        C  0.39956695  0.73939504  0.99175408     0.61600
H536        H  0.42179126  0.69964707  0.44117793     0.12300
H537        H  0.52733371  0.71629545  0.01213239     0.12300
C538        C  0.55143095  0.70830169  0.44923142     0.61900
F539        F  0.37382805  0.72769546  0.96975111    -0.23300
F540        F  0.39792777  0.77842902  0.99365847    -0.20600
F541        F  0.38892100  0.72400103  0.01959149    -0.20300
F542        F  0.55538261  0.73029110  0.42325616    -0.20400
F543        F  0.55759383  0.67083641  0.44119047    -0.20700
F544        F  0.57829950  0.71929350  0.47051874    -0.23400
C545        C  0.12027630  0.88796042  0.40814788    -0.06200
C546        C  0.12646260  0.85778343  0.38713804    -0.00300
C547        C  0.16368133  0.84990428  0.37740892    -0.08800
C548        C  0.19290906  0.87174397  0.38995476    -0.06200
C549        C  0.18660191  0.90199062  0.41065007    -0.00300
C550        C  0.14952496  0.91081736  0.41957151    -0.08700
C551        C  0.14055976  0.94395899  0.44103422     0.61600
H552        H  0.09189627  0.89442588  0.41490360     0.12300
H553        H  0.22137166  0.86592298  0.38298736     0.12300
C554        C  0.17325981  0.81907860  0.35378320     0.61900
F555        F  0.10306018  0.94538440  0.44862241    -0.23300
F556        F  0.14954343  0.97747164  0.42677591    -0.20600
F557        F  0.16061914  0.94095530  0.46816356    -0.20300
F558        F  0.15876624  0.82832316  0.32522790    -0.20400
F559        F  0.15894401  0.78479554  0.36312636    -0.20700
F560        F  0.21140341  0.81464163  0.35016677    -0.23400
C561        C  0.33901795  0.81714664  0.39339013    -0.06200
C562        C  0.35230898  0.85320293  0.38570619    -0.00300
C563        C  0.38368232  0.85575743  0.36563477    -0.08800
C564        C  0.40242772  0.82236462  0.35680248    -0.06200
C565        C  0.38958639  0.78637070  0.36468492    -0.00300
C566        C  0.35625036  0.78357756  0.38242705    -0.08700
C567        C  0.33897858  0.74568056  0.39034271     0.61600
H568        H  0.31461499  0.81549701  0.40804687     0.12300
H569        H  0.42762334  0.82420924  0.34330674     0.12300
C570        C  0.39816057  0.89319762  0.35358175     0.61900
F571        F  0.30856316  0.74970359  0.40982871    -0.23300
F572        F  0.36494630  0.72322571  0.40496968    -0.20600
F573        F  0.32673451  0.72770044  0.36359709    -0.20300
F574        F  0.40903976  0.91632865  0.37794264    -0.20400
F575        F  0.37057668  0.91075832  0.33661749    -0.20700
F576        F  0.42870023  0.88847530  0.33433094    -0.23400
C577        C  0.44298356  0.89072945  0.01017552    -0.06200
C578        C  0.43079996  0.89563345  0.04071249    -0.00300
C579        C  0.40226196  0.92209461  0.04740013    -0.08800
C580        C  0.38284101  0.93845537  0.02278992    -0.06200
C581        C  0.39371847  0.92872281  0.49271476    -0.00300
C582        C  0.42474257  0.90502825  0.48591662    -0.08700
C583        C  0.43450889  0.89329156  0.45307451     0.61600
H584        H  0.46510985  0.87055233  0.00566217     0.12300
H585        H  0.35852008  0.95576860  0.02755876     0.12300
C586        C  0.38861075  0.92876121  0.08011202     0.61900
F587        F  0.46567591  0.87018650  0.45187276    -0.23300
F588        F  0.44207761  0.92509796  0.43599657    -0.20600
F589        F  0.40508718  0.87365311  0.43992646    -0.20300
F590        F  0.41857928  0.93265638  0.10006809    -0.20400
F591        F  0.36708134  0.89841822  0.08879607    -0.20700
F592        F  0.36714106  0.96122342  0.08252131    -0.23400
C593        C  0.08579796  0.85565138  0.12799352    -0.06200
C594        C  0.12353875  0.84999792  0.13490326    -0.00300
C595        C  0.14003879  0.81451907  0.12874586    -0.08800
C596        C  0.11754142  0.78510092  0.11694003    -0.06200
C597        C  0.07897152  0.78973328  0.11152837    -0.00300
C598        C  0.06293816  0.82628969  0.11643557    -0.08700
C599        C  0.02214915  0.83499970  0.10988019     0.61600
H600        H  0.07403012  0.88334641  0.13278431     0.12300
H601        H  0.13014951  0.75784080  0.11237717     0.12300
C602        C  0.18138349  0.80814712  0.13388232     0.61900
F603        F  0.01416171  0.87309608  0.11369809    -0.23300
F604        F  0.99950074  0.81544241  0.12996189    -0.20600
F605        F  0.01358054  0.82504072  0.07965340    -0.20300
F606        F  0.18964952  0.81147700  0.16501567    -0.20400
F607        F  0.20146214  0.83471471  0.11773535    -0.20700
F608        F  0.19260827  0.77263362  0.12373205    -0.23400
C609        C  0.07013006  0.91578678  0.29205998    -0.06200
C610        C  0.04778897  0.88488374  0.28323092    -0.00300
C611        C  0.03947083  0.87871335  0.25144623    -0.08800
C612        C  0.05819807  0.90042645  0.22947521    -0.06200
C613        C  0.08498801  0.92715136  0.23843822    -0.00300
C614        C  0.08864004  0.93746289  0.27000802    -0.08700
C615        C  0.11430976  0.96884334  0.28127286     0.61600
H616        H  0.07591250  0.92102821  0.31638398     0.12300
H617        H  0.05491018  0.89336041  0.20510754     0.12300
C618        C  0.01267675  0.84892904  0.23909279     0.61900
F619        F  0.09630434  0.99051558  0.30359679    -0.23300
F620        F  0.12459223  0.99260723  0.25764190    -0.20600
F621        F  0.14607047  0.95329872  0.29406914    -0.20300
F622        F  0.99469855  0.82917945  0.26195338    -0.20400
F623        F  0.03200866  0.82351236  0.22055331    -0.20700
F624        F  0.98570285  0.86633678  0.22140350    -0.23400
C625        C  0.20032734  0.00799238  0.06063098    -0.06200
C626        C  0.21444084  0.98213057  0.08201190    -0.00300
C627        C  0.24056609  0.95446329  0.07199220    -0.08800
C628        C  0.25175725  0.95372598  0.04111363    -0.06200
C629        C  0.23788268  0.97927654  0.01954071    -0.00300
C630        C  0.21217260  0.00758055  0.02941714    -0.08700
C631        C  0.19721612  0.03692162  0.00739353     0.61600
H632        H  0.18030844  0.02891476  0.06870485     0.12300
H633        H  0.20406300  0.92958777  0.51600447     0.12300
C634        C  0.25673767  0.92541017  0.09365049     0.61900
F635        F  0.17063935  0.05992274  0.02132184    -0.23300
F636        F  0.18088082  0.01931173  0.98206723    -0.20600
F637        F  0.22611108  0.05968814  0.99761609    -0.20300
F638        F  0.22842698  0.90827761  0.10996742    -0.20400
F639        F  0.28114965  0.94329404  0.11369558    -0.20700
F640        F  0.27626237  0.89723800  0.07804667    -0.23400
C641        C  0.24665180  0.00834341  0.28452898    -0.06200
C642        C  0.24648090  0.97137907  0.27178399    -0.00300
C643        C  0.26327867  0.94157060  0.28898993    -0.08800
C644        C  0.27705836  0.94975866  0.31873194    -0.06200
C645        C  0.27499657  0.98598554  0.33180352    -0.00300
C646        C  0.26066069  0.01608076  0.31444588    -0.08700
C647        C  0.26050364  0.05598307  0.32767697     0.61600
H648        H  0.23473124  0.03108864  0.27128069     0.12300
H649        H  0.28827199  0.92735883  0.33281455     0.12300
C650        C  0.26680420  0.90100874  0.27690406     0.61900
F651        F  0.24880993  0.08199505  0.30612906    -0.23300
F652        F  0.29616923  0.06573378  0.33707805    -0.20600
F653        F  0.23679543  0.05807076  0.35283626    -0.20300
F654        F  0.28382504  0.90046482  0.24823849    -0.20400
F655        F  0.23191514  0.88451153  0.27481404    -0.20700
F656        F  0.28823820  0.87886778  0.29621160    -0.23400
C657        C  0.36010386  0.88336271  0.15703844    -0.06200
C658        C  0.35496728  0.84774040  0.14253616    -0.00300
C659        C  0.31845245  0.83220321  0.14144903    -0.08800
C660        C  0.28868921  0.85394915  0.15333423    -0.06200
C661        C  0.29353892  0.89080205  0.16553991    -0.00300
C662        C  0.33027377  0.90557992  0.16800482    -0.08700
C663        C  0.33870407  0.94468487  0.18151548     0.61600
H664        H  0.38798896  0.89489063  0.15845025     0.12300
H665        H  0.26077400  0.84255414  0.15203239     0.12300
C666        C  0.31014193  0.79343276  0.12738556     0.61900
F667        F  0.37664743  0.95118209  0.18431732    -0.23300
F668        F  0.32332442  0.94840109  0.21069405    -0.20600
F669        F  0.32440243  0.97221329  0.16248443    -0.20300
F670        F  0.33198498  0.76633684  0.14134013    -0.20400
F671        F  0.31712294  0.79363215  0.09594749    -0.20700
F672        F  0.27326802  0.78304073  0.13138909    -0.23400
C673        C  0.36937478  0.33814508  0.16257831    -0.06200
C674        C  0.39953124  0.34363836  0.18287040    -0.00300
C675        C  0.39782121  0.37315502  0.20539683    -0.08800
C676        C  0.36886807  0.39944729  0.20382874    -0.06200
C677        C  0.34169694  0.39725200  0.18066293    -0.00300
C678        C  0.34039525  0.36508511  0.16082979    -0.08700
C679        C  0.31105854  0.36157717  0.13582431     0.61600
H680        H  0.37092580  0.31527399  0.14570361     0.12300
H681        H  0.36942425  0.42399142  0.21917180     0.12300
C682        C  0.42760531  0.38018755  0.22968684     0.61900
F683        F  0.31346047  0.32736473  0.11998545    -0.23300
F684        F  0.31571157  0.39035481  0.11489401    -0.20600
F685        F  0.27595085  0.36411024  0.14892145    -0.20300
F686        F  0.45087176  0.34953223  0.23294392    -0.20400
F687        F  0.41105196  0.38736865  0.25806450    -0.20700
F688        F  0.44872866  0.41120332  0.22158517    -0.23400
C689        C  0.34240745  0.10635854  0.41490019    -0.06200
C690        C  0.34607310  0.07777530  0.43696799    -0.00300
C691        C  0.37448661  0.08087130  0.45967301    -0.08800
C692        C  0.40105757  0.10954092  0.45699671    -0.06200
C693        C  0.40085447  0.13456232  0.43222569    -0.00300
C694        C  0.36983970  0.13483059  0.41194801    -0.08700
C695        C  0.36731298  0.16310551  0.38606744     0.61600
H696        H  0.32035314  0.10379908  0.39788437     0.12300
H697        H  0.42436013  0.11016377  0.47289008     0.12300
C698        C  0.37991248  0.05330305  0.48591232     0.61900
F699        F  0.33458800  0.15901331  0.36934105    -0.23300
F700        F  0.39700551  0.15826064  0.36599734    -0.20600
F701        F  0.36819765  0.19938632  0.39841360    -0.20300
F702        F  0.41329496  0.03425851  0.48184091    -0.20400
F703        F  0.35172601  0.02693589  0.48789905    -0.20700
F704        F  0.38120157  0.07320541  0.51367272    -0.23400
C705        C  0.52172135  0.27041786  0.02528136    -0.06200
C706        C  0.49303190  0.24757538  0.01309441    -0.00300
C707        C  0.46051637  0.24183111  0.03119428    -0.08800
C708        C  0.45954956  0.25663734  0.06178626    -0.06200
C709        C  0.48928091  0.27775082  0.07442884    -0.00300
C710        C  0.52056001  0.28554968  0.05554050    -0.08700
C711        C  0.55390655  0.30741921  0.06786846     0.61600
H712        H  0.54603084  0.27536263  0.01102909     0.12300
H713        H  0.43583005  0.25096266  0.07652321     0.12300
C714        C  0.43483726  0.21316388  0.51892301     0.61900
F715        F  0.58187398  0.31064466  0.04600585    -0.23300
F716        F  0.56861139  0.28887103  0.09298491    -0.20600
F717        F  0.54305065  0.34353855  0.07658075    -0.20300
F718        F  0.44931170  0.17903086  0.50860463    -0.20400
F719        F  0.41681450  0.23069299  0.49476754    -0.20700
F720        F  0.39969350  0.21576907  0.04077731    -0.23400
C721        C  0.45652130  0.21679817  0.31189182    -0.06200
C722        C  0.48499487  0.19285842  0.32245920    -0.00300
C723        C  0.51168057  0.17896054  0.30091866    -0.08800
C724        C  0.51194522  0.19345885  0.27093468    -0.06200
C725        C  0.48588838  0.22032654  0.26124728    -0.00300
C726        C  0.45564558  0.22965870  0.28108344    -0.08700
C727        C  0.42327253  0.25356927  0.27027937     0.61600
H728        H  0.43544076  0.22608412  0.32824052     0.12300
H729        H  0.53375045  0.18497244  0.25495768     0.12300
C730        C  0.54107837  0.15045117  0.30967598     0.61900
F731        F  0.39599743  0.25734709  0.29276255    -0.23300
F732        F  0.40707674  0.23688946  0.24445424    -0.20600
F733        F  0.43578125  0.28913409  0.26300984    -0.20300
F734        F  0.52377020  0.11821288  0.32006022    -0.20400
F735        F  0.56367985  0.16580845  0.33239999    -0.20700
F736        F  0.56352436  0.14005972  0.28492261    -0.23400
C737        C  0.86279776  0.88629405  0.32302285    -0.06200
C738        C  0.84459035  0.89526754  0.35087389    -0.00300
C739        C  0.85222108  0.87348194  0.37738035    -0.08800
C740        C  0.88051515  0.84571231  0.37584780    -0.06200
C741        C  0.90174873  0.84008535  0.34894212    -0.00300
C742        C  0.89135830  0.85895198  0.32162804    -0.08700
C743        C  0.91294953  0.85313667  0.29189915     0.61600
H744        H  0.85707524  0.90347336  0.30302282     0.12300
H745        H  0.88888357  0.83108633  0.39655899     0.12300
C746        C  0.83300882  0.88212077  0.40784844     0.61900
F747        F  0.89337023  0.86649461  0.26671268    -0.23300
F748        F  0.91973471  0.81502218  0.28687926    -0.20600
F749        F  0.94644056  0.87230791  0.29399107    -0.20300
F750        F  0.79477886  0.88000844  0.40396191    -0.20400
F751        F  0.84254954  0.91809221  0.41789896    -0.20700
F752        F  0.84318060  0.85690910  0.43054056    -0.23400
C753        C  0.65463677  0.05983227  0.36175415    -0.06200
C754        C  0.68873681  0.07941176  0.36147793    -0.00300
C755        C  0.68901395  0.11826010  0.37103981    -0.08800
C756        C  0.65583003  0.13457113  0.38260383    -0.06200
C757        C  0.62205396  0.11474841  0.38320957    -0.00300
C758        C  0.62118160  0.07679761  0.37192082    -0.08700
C759        C  0.58557411  0.05350698  0.37114471     0.61600
H760        H  0.65429022  0.03074183  0.35375004     0.12300
H761        H  0.65586238  0.16325555  0.39113179     0.12300
C762        C  0.72351042  0.14313229  0.36899697     0.61900
F763        F  0.59196141  0.01645712  0.36180190    -0.23300
F764        F  0.56072193  0.06891467  0.35055454    -0.20600
F765        F  0.56962170  0.05279802  0.40013137    -0.20300
F766        F  0.73490648  0.14500980  0.33852947    -0.20400
F767        F  0.75188541  0.12871240  0.38696541    -0.20700
F768        F  0.71674565  0.17979329  0.37921640    -0.23400
C769        C  0.58012055  0.86181365  0.06639807    -0.06200
C770        C  0.57948848  0.83533452  0.08999757    -0.00300
C771        C  0.60867393  0.83524781  0.11207006    -0.08800
C772        C  0.63599790  0.86400376  0.11139345    -0.06200
C773        C  0.63370409  0.89341208  0.09005955    -0.00300
C774        C  0.60656011  0.89102506  0.06609585    -0.08700
C775        C  0.60262765  0.91989423  0.04081745     0.61600
H776        H  0.55756141  0.86189871  0.04966318     0.12300
H777        H  0.65650443  0.86616471  0.12973078     0.12300
C778        C  0.60861326  0.80693707  0.13789478     0.61900
F779        F  0.60301683  0.90166235  0.01230414    -0.23300
F780        F  0.63112910  0.94587737  0.04123115    -0.20600
F781        F  0.56915463  0.93894921  0.04427953    -0.20300
F782        F  0.60489179  0.77082111  0.12556088    -0.20400
F783        F  0.57906766  0.81456993  0.15754670    -0.20700
F784        F  0.64128937  0.80835347  0.15492830    -0.23400
C785        C  0.61111632  0.18399831  0.15108469    -0.06200
C786        C  0.57209171  0.18053129  0.15447422    -0.00300
C787        C  0.55512373  0.14485434  0.14788480    -0.08800
C788        C  0.57810461  0.11438678  0.13870971    -0.06200
C789        C  0.61674233  0.11845527  0.13523820    -0.00300
C790        C  0.63367856  0.15369826  0.14135228    -0.08700
C791        C  0.67554180  0.15895219  0.13852523     0.61600
H792        H  0.62423008  0.21088991  0.15603151     0.12300
H793        H  0.56597391  0.08701568  0.13342436     0.12300
C794        C  0.51330129  0.13830060  0.15022429     0.61900
F795        F  0.68695098  0.19413212  0.14931676    -0.23300
F796        F  0.68615089  0.15547211  0.10789858    -0.20600
F797        F  0.69358876  0.13183060  0.15567246    -0.20300
F798        F  0.49472087  0.16166753  0.12997873    -0.20400
F799        F  0.50141267  0.14546429  0.18016301    -0.20700
F800        F  0.50359084  0.10140421  0.14269454    -0.23400
C801        C  0.55783098  0.05765969  0.04007889    -0.06200
C802        C  0.59196228  0.04135388  0.03076421    -0.00300
C803        C  0.60167473  0.04101645  0.99884499    -0.08800
C804        C  0.58023178  0.06004589  0.47851955    -0.06200
C805        C  0.55198295  0.08489333  0.48808015    -0.00300
C806        C  0.53599446  0.07867995  0.01939919    -0.08700
C807        C  0.50141943  0.09937361  0.03066937     0.61600
H808        H  0.55043398  0.05753139  0.06434461     0.12300
H809        H  0.58910814  0.05989861  0.45461737     0.12300
C810        C  0.63070040  0.01296620  0.48671482     0.61900
F811        F  0.49187656  0.08918147  0.06040446    -0.23300
F812        F  0.47173558  0.09079655  0.01138611    -0.20600
F813        F  0.50750284  0.13796832  0.03063659    -0.20300
F814        F  0.64919397  0.99343226  0.00210717    -0.20400
F815        F  0.66548273  0.05188670  0.98747559    -0.20700
F816        F  0.61591200  0.98951758  0.46394576    -0.23400
C817        C  0.74371050  0.02842940  0.49026072    -0.06200
C818        C  0.74933722  0.99253945  0.01147541    -0.00300
C819        C  0.74756998  0.95826388  0.99383568    -0.08800
C820        C  0.78104554  0.96484267  0.46781091    -0.06200
C821        C  0.77528616  0.99566204  0.44829024    -0.00300
C822        C  0.75689584  0.02820960  0.45991129    -0.08700
C823        C  0.74969648  0.06227764  0.43993629     0.61600
H824        H  0.72860679  0.05311174  0.49857052     0.12300
H825        H  0.79509309  0.94006005  0.45839429     0.12300
C826        C  0.73204284  0.92201987  0.00699921     0.61900
F827        F  0.73622966  0.09292467  0.45681557    -0.23300
F828        F  0.72344135  0.05276030  0.41793538    -0.20600
F829        F  0.78231156  0.07333638  0.42574713    -0.20300
F830        F  0.69538527  0.92725352  0.01571627    -0.20400
F831        F  0.75295559  0.91159655  0.03236419    -0.20700
F832        F  0.73311592  0.89243501  0.98569029    -0.23400
C833        C  0.69879622  0.00574787  0.25301137    -0.06200
C834        C  0.73123200  0.98555458  0.26017612    -0.00300
C835        C  0.74698031  0.96080514  0.23789244    -0.08800
C836        C  0.73065524  0.95873313  0.20825073    -0.06200
C837        C  0.69953657  0.98100239  0.20013347    -0.00300
C838        C  0.68253816  0.00412113  0.22336867    -0.08700
C839        C  0.64940253  0.02943895  0.21672057     0.61600
H840        H  0.68736987  0.02448577  0.27064973     0.12300
H841        H  0.74328082  0.94084784  0.19061581     0.12300
C842        C  0.78208066  0.93851272  0.24494112     0.61900
F843        F  0.63762700  0.04926951  0.24278679    -0.23300
F844        F  0.61964429  0.00796839  0.20622416    -0.20600
F845        F  0.65933519  0.05551931  0.19478768    -0.20300
F846        F  0.77527644  0.91402185  0.26889929    -0.20400
F847        F  0.81047021  0.96297178  0.25346595    -0.20700
F848        F  0.79405426  0.91740736  0.21963563    -0.23400
C849        C  0.08370052  0.36058588  0.45610879    -0.06200
C850        C  0.07849481  0.33585456  0.43093403    -0.00300
C851        C  0.10425378  0.33630881  0.40612993    -0.08800
C852        C  0.13148090  0.36523472  0.40540877    -0.06200
C853        C  0.13301576  0.39332576  0.42867801    -0.00300
C854        C  0.11064249  0.38934160  0.45543174    -0.08700
C855        C  0.11380185  0.41670968  0.48250546     0.61600
H856        H  0.06394343  0.35966719  0.47502485     0.12300
H857        H  0.14913303  0.36823570  0.38528725     0.12300
C858        C  0.10074426  0.30833925  0.37943085     0.61900
F859        F  0.09485874  0.40394882  0.50820988    -0.23300
F860        F  0.09900954  0.45129705  0.47462885    -0.20600
F861        F  0.15093036  0.42094109  0.49038257    -0.20300
F862        F  0.06785346  0.31469199  0.36364197    -0.20400
F863        F  0.10063086  0.27190628  0.39061891    -0.20700
F864        F  0.13009082  0.31143294  0.35884812    -0.23400
C865        C  0.87939879  0.19031953  0.37935756    -0.06200
C866        C  0.89255626  0.18897747  0.40970913    -0.00300
C867        C  0.88595794  0.15660785  0.42756260    -0.08800
C868        C  0.86738819  0.12566696  0.41378866    -0.06200
C869        C  0.85519296  0.12605869  0.38278503    -0.00300
C870        C  0.86088077  0.15950746  0.36526244    -0.08700
C871        C  0.84839181  0.16333029  0.33180539     0.61600
H872        H  0.88461988  0.21566192  0.36650696     0.12300
H873        H  0.86255838  0.10067596  0.42731846     0.12300
C874        C  0.89740007  0.15536192  0.46129452     0.61900
F875        F  0.86587048  0.13639282  0.31338829    -0.23300
F876        F  0.85705235  0.19842409  0.31998167    -0.20600
F877        F  0.81015945  0.15906650  0.32984497    -0.20300
F878        F  0.88031085  0.18471325  0.47720837    -0.20400
F879        F  0.93565453  0.15896754  0.46397840    -0.20700
F880        F  0.88699769  0.12184370  0.47498894    -0.23400
C881        C  0.10972422  0.07478884  0.20746254    -0.06200
C882        C  0.13604600  0.07266478  0.18354711    -0.00300
C883        C  0.13549654  0.10033691  0.16025308    -0.08800
C884        C  0.10702494  0.12797817  0.16074572    -0.06200
C885        C  0.07858539  0.12769059  0.18308409    -0.00300
C886        C  0.08049633  0.10124096  0.20739553    -0.08700
C887        C  0.05102843  0.09707487  0.23231648     0.61600
H888        H  0.10983314  0.05307188  0.22487626     0.12300
H889        H  0.10466681  0.14773095  0.14194574     0.12300
C890        C  0.16240900  0.09806926  0.13330095     0.61900
F891        F  0.06782579  0.09953512  0.26106968    -0.23300
F892        F  0.03428713  0.06199102  0.22918449    -0.20600
F893        F  0.02355936  0.12429187  0.23119837    -0.20300
F894        F  0.15627378  0.06497138  0.11669867    -0.20400
F895        F  0.19867893  0.09842949  0.14416970    -0.20700
F896        F  0.15806965  0.12809787  0.11345715    -0.23400
C897        C  0.85545592  0.09189750  0.11767566    -0.06200
C898        C  0.85138211  0.11978902  0.14102085    -0.00300
C899        C  0.81568456  0.12499503  0.15483412    -0.08800
C900        C  0.78587374  0.10185550  0.14473656    -0.06200
C901        C  0.79045585  0.07337002  0.12208236    -0.00300
C902        C  0.82589431  0.06830650  0.10821823    -0.08700
C903        C  0.83256266  0.03867604  0.08310399     0.61600
H904        H  0.88261680  0.08798383  0.10720452     0.12300
H905        H  0.75860299  0.10524649  0.15500521     0.12300
C906        C  0.80889483  0.15361986  0.18078420     0.61900
F907        F  0.86811242  0.04093381  0.07079162    -0.23300
F908        F  0.80747907  0.04373987  0.05935355    -0.20600
F909        F  0.82819619  0.00294374  0.09508508    -0.20300
F910        F  0.81618725  0.18969844  0.17048680    -0.20400
F911        F  0.83165962  0.14563550  0.20567121    -0.20700
F912        F  0.77235438  0.15298796  0.19111490    -0.23400
C913        C  0.88531782  0.03054737  0.25101634    -0.06200
C914        C  0.89460078  0.03855016  0.28195123    -0.00300
C915        C  0.92816969  0.05849465  0.28845807    -0.08800
C916        C  0.94716285  0.07554998  0.26373639    -0.06200
C917        C  0.93442214  0.07177836  0.23318775    -0.00300
C918        C  0.90515656  0.04615129  0.22645257    -0.08700
C919        C  0.89171402  0.03671226  0.19402791     0.61600
H920        H  0.86066607  0.01395223  0.24588434     0.12300
H921        H  0.96986275  0.09496849  0.26843210     0.12300
C922        C  0.94268402  0.06405998  0.32115913     0.61900
F923        F  0.85687603  0.05250911  0.18953063    -0.23300
F924        F  0.88894282  0.99787072  0.19047909    -0.20600
F925        F  0.91571803  0.04942369  0.17155169    -0.20300
F926        F  0.94726126  0.02923640  0.33479041    -0.20400
F927        F  0.91793938  0.08565688  0.33836912    -0.20700
F928        F  0.97688908  0.08221223  0.32163996    -0.23400
C929        C  0.95175260  0.22025016  0.07278565    -0.06200
C930        C  0.98479962  0.20111389  0.07902570    -0.00300
C931        C  0.01341332  0.19973358  0.05666486    -0.08800
C932        C  0.00751155  0.21746895  0.02796306    -0.06200
C933        C  0.97391472  0.23649730  0.02123320    -0.00300
C934        C  0.94554281  0.23837020  0.04461238    -0.08700
C935        C  0.90744317  0.25655915  0.54153206     0.61600
H936        H  0.93063479  0.22101223  0.09069934     0.12300
H937        H  0.02893400  0.21594467  0.01037640     0.12300
C938        C  0.04930754  0.17860015  0.06301382     0.61900
F939        F  0.88853109  0.26125057  0.06824106    -0.23300
F940        F  0.88505876  0.23895993  0.51970805    -0.20600
F941        F  0.91444509  0.29334277  0.53305640    -0.20300
F942        F  0.04128831  0.14121143  0.06919037    -0.20400
F943        F  0.06718958  0.19468160  0.08829986    -0.20700
F944        F  0.07342527  0.17950256  0.03806465    -0.23400
C945        C  0.94933408  0.25593867  0.28241808    -0.06200
C946        C  0.98026814  0.23783042  0.26917558    -0.00300
C947        C  0.01435097  0.23679184  0.28580991    -0.08800
C948        C  0.01504052  0.25087495  0.31657997    -0.06200
C949        C  0.98368357  0.26841175  0.32993335    -0.00300
C950        C  0.95079663  0.27241595  0.31209021    -0.08700
C951        C  0.91747226  0.29444596  0.32408020     0.61600
H952        H  0.92391226  0.25751266  0.26894791     0.12300
H953        H  0.04007352  0.24848514  0.33042441     0.12300
C954        C  0.04944126  0.22052216  0.27140955     0.61900
F955        F  0.88774142  0.29336336  0.30364995    -0.23300
F956        F  0.92774416  0.33174225  0.32818815    -0.20600
F957        F  0.90559023  0.27992320  0.35183606    -0.20300
F958        F  0.05921113  0.24135120  0.24586716    -0.20400
F959        F  0.04331568  0.18351097  0.26243289    -0.20700
F960        F  0.07917235  0.22120888  0.29185191    -0.23400
C961        C  0.84536046  0.60081108  0.12416306    -0.06200
C962        C  0.84264465  0.57591292  0.09871626    -0.00300
C963        C  0.86465240  0.58256176  0.07217354    -0.08800
C964        C  0.89189430  0.61110287  0.07334837    -0.06200
C965        C  0.89792893  0.63270652  0.10027869    -0.00300
C966        C  0.87308520  0.62911714  0.12550509    -0.08700
C967        C  0.87808281  0.65280336  0.15464874     0.61600
H968        H  0.82827511  0.59538531  0.14425302     0.12300
H969        H  0.91109357  0.61429740  0.05422680     0.12300
C970        C  0.86121321  0.55778965  0.04352359     0.61900
F971        F  0.85086306  0.64532223  0.17640493    -0.23300
F972        F  0.87613617  0.69072746  0.14750340    -0.20600
F973        F  0.91242579  0.64516335  0.16761308    -0.20300
F974        F  0.82404174  0.55437185  0.03544959    -0.20400
F975        F  0.87592541  0.52251181  0.04934483    -0.20700
F976        F  0.88012687  0.57284340  0.01866515    -0.23400
C977        C  0.68861494  0.35773782  0.13270967    -0.06200
C978        C  0.68553607  0.39715782  0.12827154    -0.00300
C979        C  0.65043740  0.41490717  0.13426329    -0.08800
C980        C  0.62009851  0.39222414  0.14314225    -0.06200
C981        C  0.62349557  0.35314108  0.14712303    -0.00300
C982        C  0.65827505  0.33544454  0.14214077    -0.08700
C983        C  0.66294021  0.29303630  0.14550212     0.61600
H984        H  0.71512885  0.34409324  0.12853248     0.12300
H985        H  0.59315315  0.40498693  0.14763131     0.12300
C986        C  0.64429232  0.45737225  0.13202963     0.61900
F987        F  0.69851068  0.28111795  0.13757841    -0.23300
F988        F  0.63787310  0.27442333  0.12634206    -0.20600
F989        F  0.65651119  0.28292410  0.17577220    -0.20300
F990        F  0.65035552  0.46908231  0.10213803    -0.20400
F991        F  0.66821317  0.47622225  0.15204188    -0.20700
F992        F  0.60824398  0.46775961  0.13993136    -0.23400
C993        C  0.89954019  0.35236573  0.13662873    -0.06200
C994        C  0.86068169  0.35095068  0.14019120    -0.00300
C995        C  0.84414231  0.31830064  0.15248396    -0.08800
C996        C  0.86734911  0.28828657  0.16169137    -0.06200
C997        C  0.90654144  0.28923121  0.15814940    -0.00300
C998        C  0.92289332  0.32187106  0.14476022    -0.08700
C999        C  0.96452696  0.32498710  0.13878738     0.61600
H1000       H  0.91137656  0.37749428  0.12652718     0.12300
H1001       H  0.85466355  0.26331519  0.17128591     0.12300
C1002       C  0.80214028  0.31540322  0.15589104     0.61900
F1003       F  0.97421679  0.36002415  0.12739481    -0.23300
F1004       F  0.97524149  0.29796215  0.11711089    -0.20600
F1005       F  0.98404750  0.31989286  0.16599647    -0.20300
F1006       F  0.78560170  0.31642712  0.12704246    -0.20400
F1007       F  0.78908715  0.34535182  0.17375733    -0.20700
F1008       F  0.79156228  0.28211799  0.16985693    -0.23400
C1009       C  0.90138755  0.41694566  0.48246250    -0.06200
C1010       C  0.93163221  0.39488732  0.49183996    -0.00300
C1011       C  0.94206399  0.39620684  0.02216605    -0.08800
C1012       C  0.91922535  0.41314389  0.04469300    -0.06200
C1013       C  0.88573504  0.43106021  0.03657180    -0.00300
C1014       C  0.87809328  0.43805063  0.00497408    -0.08700
C1015       C  0.84590715  0.46196275  0.99343697     0.61600
H1016       H  0.89321972  0.41648734  0.45830123     0.12300
H1017       H  0.92599036  0.40927501  0.06889183     0.12300
C1018       C  0.97711691  0.37617295  0.03270811     0.61900
F1019       F  0.85432389  0.47645121  0.46588788    -0.23300
F1020       F  0.82680408  0.48028119  0.01689640    -0.20600
F1021       F  0.82113281  0.43933306  0.97709015    -0.20300
F1022       F  0.99916284  0.36137164  0.51098232    -0.20400
F1023       F  0.96772958  0.34687972  0.05201359    -0.20700
F1024       F  0.99928261  0.40157360  0.04894029    -0.23400
C1025       C  0.61473141  0.58709590  0.32149399    -0.06200
C1026       C  0.63475422  0.58351069  0.34909102    -0.00300
C1027       C  0.62961710  0.61090781  0.37294546    -0.08800
C1028       C  0.60132085  0.63847243  0.36975836    -0.06200
C1029       C  0.57851170  0.63923089  0.34339850    -0.00300
C1030       C  0.58766518  0.61541499  0.31789835    -0.08700
C1031       C  0.56763372  0.61759016  0.28729139     0.61600
H1032       H  0.61893536  0.56634811  0.30309199     0.12300
H1033       H  0.59447635  0.65711233  0.38901350     0.12300
C1034       C  0.65243130  0.60932525  0.40229222     0.61900
F1035       F  0.59305443  0.61452899  0.26331863    -0.23300
F1036       F  0.54935361  0.65177276  0.28438024    -0.20600
F1037       F  0.54232311  0.58821090  0.28485200    -0.20300
F1038       F  0.68981560  0.61157653  0.39477808    -0.20400
F1039       F  0.64566319  0.57573724  0.41726211    -0.20700
F1040       F  0.64405521  0.63893089  0.42240556    -0.23400
C1041       C  0.56739462  0.32528210  0.41331245    -0.06200
C1042       C  0.58049163  0.28969773  0.40342513    -0.00300
C1043       C  0.61337982  0.28780776  0.38511666    -0.08800
C1044       C  0.63185252  0.32156695  0.37758539    -0.06200
C1045       C  0.61923345  0.35716712  0.38790785    -0.00300
C1046       C  0.58617057  0.35912126  0.40613302    -0.08700
C1047       C  0.56987205  0.39650463  0.41745479     0.61600
H1048       H  0.54239539  0.32629755  0.42733402     0.12300
H1049       H  0.65689980  0.32031745  0.36363921     0.12300
C1050       C  0.62930627  0.25047703  0.37346998     0.61900
F1051       F  0.53647901  0.39171589  0.43296374    -0.23300
F1052       F  0.56301601  0.41961410  0.39258809    -0.20600
F1053       F  0.59446420  0.41407164  0.43768224    -0.20300
F1054       F  0.60164977  0.22904935  0.35941976    -0.20400
F1055       F  0.64416198  0.23114184  0.39809576    -0.20700
F1056       F  0.65746212  0.25550628  0.35203197    -0.23400
C1057       C  0.56588958  0.41588519  0.23760135    -0.06200
C1058       C  0.54777867  0.38293543  0.24768605    -0.00300
C1059       C  0.54645651  0.37559417  0.28000980    -0.08800
C1060       C  0.56655347  0.39932948  0.30028612    -0.06200
C1061       C  0.58860446  0.42895816  0.28950525    -0.00300
C1062       C  0.58689324  0.43884685  0.25801502    -0.08700
C1063       C  0.60732186  0.47326320  0.24610416     0.61600
H1064       H  0.56627627  0.42181680  0.21312134     0.12300
H1065       H  0.56819013  0.39250750  0.32458982     0.12300
C1066       C  0.52552107  0.34233745  0.29362659     0.61900
F1067       F  0.59794433  0.48069845  0.21573995    -0.23300
F1068       F  0.64544226  0.46772775  0.24745079    -0.20600
F1069       F  0.59795786  0.50458453  0.26400005    -0.20300
F1070       F  0.54403642  0.30884094  0.28725580    -0.20400
F1071       F  0.48996734  0.34066733  0.28163455    -0.20700
F1072       F  0.52221107  0.34574387  0.32545544    -0.23400
C1073       C  0.82524123  0.41862746  0.37008846    -0.06200
C1074       C  0.78979109  0.40305117  0.37518291    -0.00300
C1075       C  0.78698784  0.36833247  0.39119494    -0.08800
C1076       C  0.81994677  0.34951404  0.39959270    -0.06200
C1077       C  0.85539839  0.36426797  0.39323617    -0.00300
C1078       C  0.85822741  0.40001623  0.37883695    -0.08700
C1079       C  0.89547352  0.41945167  0.37356897     0.61600
H1080       H  0.82699274  0.44568455  0.35887532     0.12300
H1081       H  0.81824763  0.32269069  0.41126230     0.12300
C1082       C  0.74968920  0.35135312  0.40037381     0.61900
F1083       F  0.89108651  0.45567859  0.36242335    -0.23300
F1084       F  0.91620578  0.39919799  0.35217347    -0.20600
F1085       F  0.91501364  0.42224606  0.40103571    -0.20300
F1086       F  0.73185003  0.33679367  0.37447949    -0.20400
F1087       F  0.72749860  0.37867896  0.41438142    -0.20700
F1088       F  0.75397393  0.32225653  0.42114449    -0.23400
C1089       C  0.68571949  0.46571428  0.47201490    -0.06200
C1090       C  0.70337823  0.49310986  0.45399180    -0.00300
C1091       C  0.73204709  0.51564202  0.46760458    -0.08800
C1092       C  0.74299187  0.50855322  0.49828075    -0.06200
C1093       C  0.72788170  0.47478439  0.01580010    -0.00300
C1094       C  0.69850486  0.45268482  0.00284372    -0.08700
C1095       C  0.67990930  0.42114474  0.02063385     0.61600
H1096       H  0.66393587  0.44868291  0.46142587     0.12300
H1097       H  0.76534896  0.52487475  0.50871506     0.12300
C1098       C  0.75118289  0.54708445  0.45014494     0.61900
F1099       F  0.64838404  0.40758657  0.00565107    -0.23300
F1100       F  0.66917301  0.43426911  0.04949358    -0.20600
F1101       F  0.70442640  0.39129236  0.02388264    -0.20300
F1102       F  0.72470680  0.56990963  0.43669853    -0.20400
F1103       F  0.77422727  0.53197871  0.42753015    -0.20700
F1104       F  0.77281817  0.56964020  0.46948988    -0.23400
C1105       C  0.74147989  0.51518254  0.24801061    -0.06200
C1106       C  0.75305581  0.48449205  0.26586253    -0.00300
C1107       C  0.78128850  0.45994211  0.25407435    -0.08800
C1108       C  0.79330001  0.46416089  0.22339944    -0.06200
C1109       C  0.77861899  0.49227304  0.20447512    -0.00300
C1110       C  0.75417253  0.51974681  0.21743723    -0.08700
C1111       C  0.74158350  0.55375016  0.19921222     0.61600
H1112       H  0.72093696  0.53451698  0.25755769     0.12300
H1113       H  0.81279725  0.44403718  0.21341184     0.12300
C1114       C  0.79931639  0.42969827  0.27367948     0.61900
F1115       F  0.72670939  0.58157363  0.21840588    -0.23300
F1116       F  0.71464126  0.54301450  0.17799366    -0.20600
F1117       F  0.77162289  0.56923852  0.18383048    -0.20300
F1118       F  0.77482174  0.40012800  0.27810216    -0.20400
F1119       F  0.80952981  0.44515712  0.30193626    -0.20700
F1120       F  0.83118569  0.41511698  0.25987989    -0.23400
O1121       O  0.71875449  0.43709726  0.80159375    -0.82200
C1122       C  0.69369204  0.48781308  0.92065995     0.97100
O1123       O  0.71893202  0.48939406  0.90062283    -0.71300
O1124       O  0.75450062  0.45167581  0.85817307    -0.74900
Al1125     Al  0.71718007  0.49111361  0.85710242     1.49000
C1126       C  0.75259974  0.41597998  0.86124727     0.92400
O1127       O  0.65014281  0.38517159  0.85245529    -0.81100
O1128       O  0.60552997  0.44878047  0.84102471    -0.74700
Al1129     Al  0.68391982  0.41723041  0.83045650     1.90100
O1130       O  0.63681019  0.41796135  0.89376845    -0.73800
O1131       O  0.62995078  0.51461042  0.85944003    -0.73600
O1132       O  0.65998069  0.48387131  0.91260656    -0.79300
O1133       O  0.68694673  0.53667496  0.85701524    -0.77500
O1134       O  0.67924063  0.45847231  0.85431725    -1.13600
O1135       O  0.72163618  0.49701492  0.81323737    -0.72800
C1136       C  0.72844055  0.47003540  0.79470462     0.97900
C1137       C  0.63567824  0.38723362  0.87896290     0.94300
Al1138     Al  0.63679343  0.46607528  0.87493789     1.55600
O1139       O  0.72276895  0.39853174  0.85510876    -0.77400
C1140       C  0.65206517  0.54151988  0.85529621     0.98500
C1141       C  0.61254968  0.43970662  0.81308212     0.93300
O1142       O  0.64548043  0.43329350  0.80410143    -0.82800
O1143       O  0.82347568  0.42756299  0.55314083    -0.82200
C1144       C  0.78438828  0.48642887  0.67059738     0.97100
O1145       O  0.81741026  0.47995248  0.66160069    -0.71300
O1146       O  0.83897356  0.41401837  0.64121592    -0.74900
Al1147     Al  0.83811267  0.46226657  0.62288579     1.49000
C1148       C  0.83678239  0.38306726  0.62684985     0.92400
O1149       O  0.74721327  0.39884229  0.60780506    -0.81100
O1150       O  0.75262538  0.49680885  0.56455773    -0.74700
Al1151     Al  0.78565100  0.41472256  0.58112546     1.90100
O1152       O  0.71815299  0.45337710  0.61029658    -0.73800
O1153       O  0.78950680  0.53497822  0.60733638    -0.73600
O1154       O  0.75813350  0.48931239  0.65152463    -0.79300
O1155       O  0.84562098  0.51098991  0.60787840    -0.77500
O1156       O  0.79407773  0.45614886  0.60423238    -1.13600
O1157       O  0.86617456  0.44519278  0.58726772    -0.72800
C1158       C  0.85684470  0.43578223  0.55986979     0.97900
C1159       C  0.71844602  0.41793494  0.61465140     0.94300
Al1160     Al  0.75780173  0.49073820  0.60810562     1.55600
O1161       O  0.81897443  0.38092436  0.60185360    -0.77400
C1162       C  0.82433093  0.53870076  0.60459626     0.98500
C1163       C  0.74405162  0.47051509  0.54595370     0.93300
O1164       O  0.75044518  0.43671896  0.55304614    -0.82800
O1165       O  0.94456783  0.19790563  0.73528291    -0.82200
C1166       C  0.98745433  0.18380601  0.61113303     0.97100
O1167       O  0.00606818  0.20211993  0.63116430    -0.71300
O1168       O  0.95805071  0.24821316  0.65826936    -0.74900
Al1169     Al  0.99385189  0.21295900  0.67379817     1.49000
C1170       C  0.92551936  0.25537984  0.66791532     0.92400
O1171       O  0.88614031  0.16846265  0.66623151    -0.81100
O1172       O  0.96721162  0.10346033  0.69483132    -0.74700
Al1173     Al  0.91871497  0.18271173  0.69914516     1.90100
O1174       O  0.91706381  0.11937424  0.64989292    -0.73800
O1175       O  0.02079452  0.13227647  0.66026186    -0.73600
O1176       O  0.96786941  0.15576496  0.61861704    -0.79300
O1177       O  0.03363828  0.18207665  0.68901996    -0.77500
O1178       O  0.96014289  0.17584984  0.67709141    -1.13600
O1179       O  0.98885232  0.23226196  0.71530144    -0.72800
C1180       C  0.97027875  0.22187454  0.73839174     0.97900
C1181       C  0.88676357  0.13704917  0.65230203     0.94300
Al1182     Al  0.96784773  0.13167619  0.65742063     1.55600
O1183       O  0.91017671  0.23364066  0.68697196    -0.77400
C1184       C  0.04259511  0.15010269  0.67801829     0.98500
C1185       C  0.94088936  0.10504106  0.71429676     0.93300
O1186       O  0.91880246  0.13291310  0.71551545    -0.82800
O1187       O  0.93104047  0.33347204  0.97770989    -0.82200
C1188       C  0.98337355  0.28144498  0.86286869     0.97100
O1189       O  0.98071981  0.31590993  0.87071566    -0.71300
O1190       O  0.91769412  0.34266097  0.88955146    -0.74900
Al1191     Al  0.96502166  0.34083629  0.90818530     1.49000
C1192       C  0.88696732  0.34194744  0.90316026     0.92400
O1193       O  0.89802690  0.25301979  0.92684864    -0.81100
O1194       O  0.99543137  0.25741814  0.97099715    -0.74700
Al1195     Al  0.91602229  0.29357779  0.95148566     1.90100
O1196       O  0.95050809  0.22064467  0.92708335    -0.73800
O1197       O  0.03391602  0.28874832  0.92440467    -0.73600
O1198       O  0.98533492  0.25580825  0.88277760    -0.79300
O1199       O  0.01352714  0.34698513  0.92309382    -0.77500
O1200       O  0.95686062  0.29802039  0.92853164    -1.13600
O1201       O  0.94945418  0.37327723  0.94196860    -0.72800
C1202       C  0.93907286  0.36647526  0.96932177     0.97900
C1203       C  0.91556065  0.22234897  0.92285207     0.94300
Al1204     Al  0.98881531  0.25910407  0.92649190     1.55600
O1205       O  0.88429904  0.32632481  0.92891312    -0.77400
C1206       C  0.03986201  0.32388324  0.92490459     0.98500
C1207       C  0.96857277  0.25250726  0.98957695     0.93300
O1208       O  0.93605798  0.25992737  0.98086479    -0.82800
O1209       O  0.65261982  0.04359914  0.55024611    -0.82200
C1210       C  0.69209819  0.98381298  0.66569171     0.97100
O1211       O  0.65876943  0.98879933  0.65658846    -0.71300
O1212       O  0.63428560  0.05377068  0.63764302    -0.74900
Al1213     Al  0.63737874  0.00597197  0.61788494     1.49000
C1214       C  0.63785264  0.08541969  0.62542082     0.92400
O1215       O  0.72754978  0.07111568  0.60664603    -0.81100
O1216       O  0.72389895  0.97444861  0.55856795    -0.74700
Al1217     Al  0.68969931  0.05567869  0.57920283     1.90100
O1218       O  0.75796143  0.01702990  0.60585597    -0.73800
O1219       O  0.68742419  0.93420825  0.60018725    -0.73600
O1220       O  0.71824150  0.98025419  0.64638939    -0.79300
O1221       O  0.63104815  0.95724058  0.60120633    -0.77500
O1222       O  0.68160307  0.01341339  0.60009433    -1.13600
O1223       O  0.60938359  0.02302628  0.58227474    -0.72800
C1224       C  0.61926772  0.03452046  0.55577266     0.97900
C1225       C  0.75717909  0.05255372  0.61073069     0.94300
Al1226     Al  0.71855051  0.97922859  0.60263030     1.55600
O1227       O  0.65631718  0.08840678  0.60100756    -0.77400
C1228       C  0.65264997  0.92987949  0.59703032     0.98500
C1229       C  0.73171613  0.00191708  0.54150040     0.93300
O1230       O  0.72505562  0.03508330  0.55097569    -0.82800
O1231       O  0.75765225  0.03199983  0.79700540    -0.82200
C1232       C  0.78607595  0.99041861  0.91681818     0.97100
O1233       O  0.75959586  0.98815988  0.89776224    -0.71300
O1234       O  0.72091960  0.02039404  0.85401632    -0.74900
Al1235     Al  0.76061149  0.98276734  0.85427038     1.49000
C1236       C  0.72117520  0.05627488  0.85661957     0.92400
O1237       O  0.82206223  0.09062832  0.84785867    -0.81100
O1238       O  0.87148243  0.02715823  0.83550511    -0.74700
Al1239     Al  0.79069305  0.05602911  0.82586037     1.90100
O1240       O  0.84109368  0.05997120  0.88776858    -0.73800
O1241       O  0.84870395  0.96161581  0.85487530    -0.73600
O1242       O  0.81936713  0.99445822  0.90783923    -0.79300
O1243       O  0.79210786  0.93845953  0.85636739    -0.77500
O1244       O  0.79761909  0.01640823  0.85011600    -1.13600
O1245       O  0.75658113  0.97283990  0.81049679    -0.72800
C1246       C  0.75011782  0.99792916  0.79076026     0.97900
C1247       C  0.83857508  0.09047177  0.87343458     0.94300
Al1248     Al  0.84119535  0.01097014  0.86976873     1.55600
O1249       O  0.75038604  0.07427490  0.85004802    -0.77400
C1250       C  0.82694149  0.93389137  0.85414938     0.98500
C1251       C  0.86378082  0.03584936  0.80794314     0.93300
O1252       O  0.83039913  0.04150072  0.79976035    -0.82800
O1253       O  0.54027010  0.14494152  0.97548196    -0.82200
C1254       C  0.48645591  0.18537577  0.85757974     0.97100
O1255       O  0.48864046  0.15199803  0.86766638    -0.71300
O1256       O  0.55423051  0.12860679  0.88663425    -0.74900
Al1257     Al  0.50707799  0.13148756  0.90609784     1.49000
C1258       C  0.58503774  0.13034780  0.90041846     0.92400
O1259       O  0.57397236  0.22163151  0.92309130    -0.81100
O1260       O  0.47514194  0.22179961  0.96319481    -0.74700
Al1261     Al  0.55532143  0.18288272  0.94808586     1.90100
O1262       O  0.52176291  0.25353803  0.91875542    -0.73800
O1263       O  0.43816066  0.18450116  0.91936755    -0.73600
O1264       O  0.48700816  0.21331684  0.87598461    -0.79300
O1265       O  0.45968930  0.12686482  0.92340143    -0.77500
O1266       O  0.51517854  0.17640376  0.92436860    -1.13600
O1267       O  0.52480111  0.10221771  0.94034986    -0.72800
C1268       C  0.53490163  0.11099011  0.96757287     0.97900
C1269       C  0.55709575  0.25175691  0.91664498     0.94300
Al1270     Al  0.48319527  0.21489294  0.91964805     1.55600
O1271       O  0.58761487  0.14828173  0.92581000    -0.77400
C1272       C  0.43304021  0.14979491  0.92447006     0.98500
C1273       C  0.50053485  0.22815533  0.98274812     0.93300
O1274       O  0.53368254  0.21873067  0.97651805    -0.82800
O1275       O  0.52872980  0.24868351  0.72810541    -0.82200
C1276       C  0.49154516  0.28499719  0.60855228     0.97100
O1277       O  0.48618826  0.25813490  0.62684778    -0.71300
O1278       O  0.51728232  0.21642989  0.66927115    -0.74900
Al1279     Al  0.48078207  0.25699598  0.67051381     1.49000
C1280       C  0.55267683  0.21580898  0.66822123     0.92400
O1281       O  0.58943005  0.31693064  0.68377095    -0.81100
O1282       O  0.52598063  0.36629848  0.69670685    -0.74700
Al1283     Al  0.55342814  0.28393489  0.70223965     1.90100
O1284       O  0.56030021  0.33840028  0.64363306    -0.73800
O1285       O  0.46235123  0.34656316  0.67181587    -0.73600
O1286       O  0.49721028  0.31818451  0.61901871    -0.79300
O1287       O  0.43768000  0.29004851  0.67004230    -0.77500
O1288       O  0.51496793  0.29326986  0.67718433    -1.13600
O1289       O  0.47051724  0.25023775  0.71387415    -0.72800
C1290       C  0.49497830  0.24140798  0.73344508     0.97900
C1291       C  0.58972176  0.33474601  0.65886345     0.94300
Al1292     Al  0.51143199  0.33833581  0.65935367     1.55600
O1293       O  0.57108878  0.24484002  0.67615526    -0.77400
C1294       C  0.43443023  0.32542641  0.67340938     0.98500
C1295       C  0.53351946  0.35639772  0.72423649     0.93300
O1296       O  0.53876506  0.32211834  0.73038966    -0.82800
O1297       O  0.14869857  0.92775440  0.72839942    -0.82200
C1298       C  0.19191251  0.98568158  0.61345436     0.97100
O1299       O  0.15865096  0.98253059  0.62263314    -0.71300
O1300       O  0.13675951  0.91647164  0.63971635    -0.74900
Al1301     Al  0.13745524  0.96354351  0.66004411     1.49000
C1302       C  0.13915738  0.88479936  0.65209791     0.92400
O1303       O  0.22756836  0.89728616  0.67565947    -0.81100
O1304       O  0.22324415  0.99572213  0.71986879    -0.74700
Al1305     Al  0.18770108  0.91425405  0.70106925     1.90100
O1306       O  0.25708106  0.95140586  0.67413754    -0.73800
O1307       O  0.18728604  0.03437952  0.67648195    -0.73600
O1308       O  0.21859958  0.98667657  0.63235749    -0.79300
O1309       O  0.13075343  0.01131534  0.67776118    -0.77500
O1310       O  0.18106133  0.95584558  0.67889150    -1.13600
O1311       O  0.10786286  0.94534324  0.69332075    -0.72800
C1312       C  0.11565352  0.93527935  0.72046950     0.97900
C1313       C  0.25698589  0.91581440  0.67034168     0.94300
Al1314     Al  0.21826848  0.98932667  0.67595916     1.55600
O1315       O  0.15538238  0.88149613  0.67768547    -0.77400
C1316       C  0.15253788  0.03886275  0.67978574     0.98500
C1317       C  0.23013191  0.96896443  0.73803656     0.93300
O1318       O  0.22131882  0.93570053  0.73047855    -0.82800
O1319       O  0.25610821  0.93872291  0.97865578    -0.82200
C1320       C  0.28330796  0.98947597  0.86273426     0.97100
O1321       O  0.25661676  0.98839030  0.88155268    -0.71300
O1322       O  0.21858334  0.95464869  0.92463851    -0.74900
Al1323     Al  0.25808933  0.99209552  0.92485603     1.49000
C1324       C  0.21949207  0.91927732  0.91953240     0.92400
O1325       O  0.32107258  0.88428226  0.92440894    -0.81100
O1326       O  0.36949317  0.94666934  0.94152146    -0.74700
Al1327     Al  0.28909957  0.91670655  0.94875891     1.90100
O1328       O  0.33876166  0.91964173  0.88648639    -0.73800
O1329       O  0.34531527  0.01376725  0.92796331    -0.73600
O1330       O  0.31683925  0.98742785  0.87181805    -0.79300
O1331       O  0.28892769  0.03692609  0.92398583    -0.77500
O1332       O  0.29547723  0.95851723  0.92726951    -1.13600
O1333       O  0.25540100  0.99915351  0.96858780    -0.72800
C1334       C  0.25001014  0.97254178  0.98710868     0.97900
C1335       C  0.33712501  0.88765569  0.89863589     0.94300
Al1336     Al  0.33883152  0.96652799  0.90853080     1.55600
O1337       O  0.24910949  0.90064894  0.92331915    -0.77400
C1338       C  0.32329291  0.04133377  0.92924231     0.98500
C1339       C  0.36175805  0.93600341  0.96860571     0.93300
O1340       O  0.32845659  0.92905472  0.97611466    -0.81200
O1341       O  0.43282813  0.64552824  0.79435952    -0.82200
C1342       C  0.48457103  0.68828303  0.91204503     0.97100
O1343       O  0.48464971  0.65442116  0.90218781    -0.71300
O1344       O  0.41896219  0.63242201  0.88340840    -0.74900
Al1345     Al  0.46591793  0.63314763  0.86369403     1.49000
C1346       C  0.38842642  0.63222182  0.86925605     0.92400
O1347       O  0.39893407  0.72214136  0.84834827    -0.81100
O1348       O  0.49830173  0.72052915  0.80749363    -0.74700
Al1349     Al  0.41766366  0.68348557  0.82227243     1.90100
O1350       O  0.45085657  0.75474206  0.85150868    -0.73800
O1351       O  0.53513499  0.68478034  0.85201084    -0.73600
O1352       O  0.48420582  0.71551833  0.89375356    -0.79300
O1353       O  0.51332078  0.62733281  0.84651203    -0.77500
O1354       O  0.45797459  0.67733818  0.84565550    -1.13600
O1355       O  0.44816406  0.60310096  0.82889269    -0.72800
C1356       C  0.43923056  0.61172539  0.80149544     0.97900
C1357       C  0.41559045  0.75256849  0.85487787     0.94300
Al1358     Al  0.48973862  0.71568317  0.85079247     1.55600
O1359       O  0.38575523  0.64869213  0.84365610    -0.77400
C1360       C  0.54030200  0.64981667  0.84663804     0.98500
C1361       C  0.47269407  0.72748010  0.78841117     0.93300
O1362       O  0.43930717  0.71920222  0.79454236    -0.82800
O1363       O  0.44169276  0.77599275  0.53961275    -0.82200
C1364       C  0.48958577  0.78186768  0.66364597     0.97100
O1365       O  0.50548393  0.76290310  0.64242300    -0.71300
O1366       O  0.45568400  0.72055311  0.61405245    -0.74900
Al1367     Al  0.49242327  0.75541523  0.59943192     1.49000
C1368       C  0.42259651  0.71542771  0.60485133     0.92400
O1369       O  0.38630535  0.80258292  0.61086577    -0.81100
O1370       O  0.46842225  0.86665194  0.58223395    -0.74700
Al1371     Al  0.41737175  0.78956489  0.57672404     1.90100
O1372       O  0.41909353  0.84984240  0.62809049    -0.73800
O1373       O  0.52229492  0.83493022  0.61496153    -0.73600
O1374       O  0.47079059  0.81089684  0.65687537    -0.79300
O1375       O  0.53378423  0.78583698  0.58511441    -0.77500
O1376       O  0.45984348  0.79379139  0.59808751    -1.13600
O1377       O  0.48555355  0.73903338  0.55717656    -0.72800
C1378       C  0.46584459  0.75077814  0.53508132     0.97900
C1379       C  0.38818235  0.83307336  0.62602029     0.94300
Al1380     Al  0.46949876  0.83667520  0.61886499     1.55600
O1381       O  0.40758852  0.73826601  0.58660681    -0.77400
C1382       C  0.54407675  0.81675810  0.59746935     0.98500
C1383       C  0.44140303  0.86682061  0.56338011     0.93300
O1384       O  0.41804922  0.84012816  0.56237299    -0.82800
O1385       O  0.03088725  0.71923877  0.54645035    -0.82200
C1386       C  0.98836027  0.69506076  0.66571989     0.97100
O1387       O  0.98750021  0.72099420  0.64619860    -0.71300
O1388       O  0.01869902  0.75817842  0.60167413    -0.74900
Al1389     Al  0.98155423  0.71822315  0.60316801     1.49000
C1390       C  0.05397373  0.75775760  0.60413871     0.92400
O1391       O  0.08775581  0.65498494  0.59765307    -0.81100
O1392       O  0.02803549  0.60549921  0.58614606    -0.74700
Al1393     Al  0.05408332  0.68647400  0.57506433     1.90100
O1394       O  0.05617319  0.64015490  0.63884846    -0.73800
O1395       O  0.96129302  0.62890992  0.60297944    -0.73600
O1396       O  0.98944508  0.66068177  0.65718990    -0.79300
O1397       O  0.93780641  0.68611342  0.60618629    -0.77500
O1398       O  0.01462696  0.68065557  0.59933608    -1.13600
O1399       O  0.97210636  0.72071113  0.55969369    -0.72800
C1400       C  0.99751082  0.72758130  0.54042720     0.97900
C1401       C  0.08647664  0.64110635  0.62427182     0.94300
Al1402     Al  0.00884126  0.63750871  0.61954479     1.55600
O1403       O  0.07171346  0.72754151  0.59876002    -0.77400
C1404       C  0.93365786  0.65076080  0.60284248     0.98500
C1405       C  0.03649699  0.61235510  0.55827254     0.93300
O1406       O  0.03963507  0.64587963  0.54916112    -0.82800
O1407       O  0.04339513  0.82220540  0.80028375    -0.82200
C1408       C  0.99024235  0.78407465  0.91811859     0.97100
O1409       O  0.99469956  0.81751083  0.90875125    -0.71300
O1410       O  0.05978927  0.84021599  0.88813520    -0.74900
Al1411     Al  0.01129412  0.83794518  0.87011895     1.49000
C1412       C  0.08997592  0.83779916  0.87339993     0.92400
O1413       O  0.07526011  0.74682707  0.85517236    -0.81100
O1414       O  0.97664607  0.74982527  0.81258427    -0.74700
Al1415     Al  0.05774277  0.78469788  0.82854127     1.90100
O1416       O  0.02207979  0.71562224  0.85724348    -0.73800
O1417       O  0.94032583  0.78664172  0.85709378    -0.73600
O1418       O  0.98828808  0.75653112  0.89943598    -0.79300
O1419       O  0.96266387  0.84405961  0.85493294    -0.77500
O1420       O  0.01764669  0.79290907  0.85187201    -1.13600
O1421       O  0.02713714  0.86590944  0.83470798    -0.72800
C1422       C  0.03625534  0.85627360  0.80737690     0.97900
C1423       C  0.05721002  0.71716425  0.86101545     0.94300
Al1424     Al  0.98451921  0.75538107  0.85623924     1.55600
O1425       O  0.09068367  0.81909756  0.84861576    -0.77400
C1426       C  0.93558971  0.82168146  0.85378244     0.98500
C1427       C  0.00255516  0.74262050  0.79374276     0.93300
O1428       O  0.03591585  0.74819973  0.80163529    -0.82800
O1429       O  0.32427274  0.54356228  0.72094492    -0.82200
C1430       C  0.27887081  0.48315528  0.60573034     0.97100
O1431       O  0.31198950  0.48959349  0.61416945    -0.71300
O1432       O  0.33241465  0.55770151  0.63119286    -0.74900
Al1433     Al  0.33404314  0.50980988  0.65086501     1.49000
C1434       C  0.33268447  0.58867215  0.64582147     0.92400
O1435       O  0.24509431  0.57428858  0.66968385    -0.81100
O1436       O  0.25014297  0.47685306  0.71281822    -0.74700
Al1437     Al  0.28501361  0.55767072  0.69449937     1.90100
O1438       O  0.21533844  0.52001844  0.66732678    -0.73800
O1439       O  0.28635023  0.43772996  0.66906154    -0.73600
O1440       O  0.25285829  0.48243919  0.62516247    -0.79300
O1441       O  0.34250433  0.46206125  0.66705962    -0.77500
O1442       O  0.29117720  0.51621321  0.67119237    -1.13600
O1443       O  0.36460303  0.52867366  0.68419345    -0.72800
C1444       C  0.35727460  0.53686572  0.71215643     0.97900
C1445       C  0.21558652  0.55567048  0.66417025     0.94300
Al1446     Al  0.25438881  0.48206829  0.66877648     1.55600
O1447       O  0.31770883  0.59057615  0.67214357    -0.77400
C1448       C  0.32140382  0.43418951  0.67056698     0.98500
C1449       C  0.24276807  0.50389098  0.73118693     0.93300
O1450       O  0.25118284  0.53700537  0.72377050    -0.82800
O1451       O  0.22875856  0.53028197  0.97481632    -0.82200
C1452       C  0.19061703  0.48632153  0.85663679     0.97100
O1453       O  0.21752899  0.48291788  0.87497418    -0.71300
O1454       O  0.25876810  0.51709400  0.91629643    -0.74900
Al1455     Al  0.21924678  0.47934947  0.91823508     1.49000
C1456       C  0.25761326  0.55293757  0.91368114     0.92400
O1457       O  0.15806076  0.58829943  0.93086289    -0.81100
O1458       O  0.11172074  0.52546203  0.94342117    -0.74700
Al1459     Al  0.19230527  0.55342929  0.94911312     1.90100
O1460       O  0.13917376  0.55850851  0.88977146    -0.73800
O1461       O  0.13106289  0.46009254  0.92007807    -0.73600
O1462       O  0.15799412  0.49282000  0.86665946    -0.79300
O1463       O  0.18706352  0.43546163  0.91826806    -0.77500
O1464       O  0.18331424  0.51370588  0.92435501    -1.13600
O1465       O  0.22584121  0.47080173  0.96129318    -0.72800
C1466       C  0.23500765  0.49613816  0.98051085     0.97900
C1467       C  0.14066995  0.58847329  0.90566370     0.94300
Al1468     Al  0.13881229  0.50931204  0.90646595     1.55600
O1469       O  0.22926633  0.57133301  0.92239694    -0.77400
C1470       C  0.15226168  0.43202838  0.92170532     0.98500
C1471       C  0.12193194  0.53263369  0.97112582     0.93300
O1472       O  0.15587233  0.53802009  0.97747105    -0.82800
C1473       C  0.23299156  0.46395084  0.77754741    -0.06200
C1474       C  0.22466506  0.49738969  0.76178363    -0.00300
C1475       C  0.20023039  0.52430649  0.77605515    -0.08800
C1476       C  0.18757075  0.51795768  0.80635376    -0.06200
C1477       C  0.19852540  0.48615587  0.82293516    -0.00300
C1478       C  0.22044861  0.45789988  0.80802522    -0.08700
C1479       C  0.23013985  0.42129954  0.82406581     0.61600
H1480       H  0.25087728  0.44325775  0.76633943     0.12300
H1481       H  0.17076086  0.53915500  0.81812665     0.12300
C1482       C  0.18772156  0.56014538  0.76004543     0.61900
F1483       F  0.24629625  0.39530664  0.80390729    -0.23300
F1484       F  0.19806646  0.40528202  0.83586535    -0.20600
F1485       F  0.25503229  0.42822809  0.84787428    -0.20300
F1486       F  0.17585270  0.55175963  0.73037009    -0.20400
F1487       F  0.21688135  0.58564574  0.75903992    -0.20700
F1488       F  0.15829913  0.57747761  0.77540589    -0.23400
C1489       C  0.29154721  0.50238509  0.55246106    -0.06200
C1490       C  0.27054273  0.47975190  0.57226478    -0.00300
C1491       C  0.24137392  0.45704532  0.55973365    -0.08800
C1492       C  0.23245548  0.46057286  0.52827068    -0.06200
C1493       C  0.25103183  0.48633495  0.50951388    -0.00300
C1494       C  0.28212843  0.50653651  0.52131923    -0.08700
C1495       C  0.30796633  0.52976628  0.00103699     0.61600
H1496       H  0.31448408  0.51897809  0.56212352     0.12300
H1497       H  0.20899894  0.44496039  0.51854120     0.12300
C1498       C  0.21926845  0.42970413  0.57916946     0.61900
F1499       F  0.34223631  0.53794358  0.01427638    -0.23300
F1500       F  0.28970684  0.56350831  0.99583084    -0.20600
F1501       F  0.31444039  0.51135995  0.97315474    -0.20300
F1502       F  0.19512904  0.44946512  0.59825279    -0.20400
F1503       F  0.24313908  0.40839489  0.59685753    -0.20700
F1504       F  0.19839603  0.40502176  0.56102083    -0.23400
C1505       C  0.09030093  0.68438420  0.90266360    -0.06200
C1506       C  0.07772360  0.68389945  0.87207406    -0.00300
C1507       C  0.08635472  0.65294904  0.85240750    -0.08800
C1508       C  0.10784209  0.62313439  0.86415415    -0.06200
C1509       C  0.12049621  0.62300234  0.89502676    -0.00300
C1510       C  0.11111167  0.65425661  0.91487918    -0.08700
C1511       C  0.12184681  0.65608392  0.94891046     0.61600
H1512       H  0.08327308  0.70871694  0.91701718     0.12300
H1513       H  0.11479457  0.59946579  0.84908591     0.12300
C1514       C  0.07332947  0.65186279  0.81900955     0.61900
F1515       F  0.10767805  0.68798807  0.96369927    -0.23300
F1516       F  0.16024526  0.65715696  0.95182197    -0.20600
F1517       F  0.10783240  0.62493116  0.96394914    -0.20300
F1518       F  0.08804303  0.68231726  0.80349373    -0.20400
F1519       F  0.03482938  0.65363043  0.81792602    -0.20700
F1520       F  0.08444031  0.61906631  0.80374881    -0.23400
C1521       C  0.11487803  0.58286381  0.64317475    -0.06200
C1522       C  0.11932271  0.62121311  0.63659348    -0.00300
C1523       C  0.15478243  0.63813196  0.63958047    -0.08800
C1524       C  0.18499611  0.61558712  0.64878521    -0.06200
C1525       C  0.18117460  0.57660803  0.65466471    -0.00300
C1526       C  0.14508208  0.55984064  0.65174715    -0.08700
C1527       C  0.13776563  0.51795857  0.65655898     0.61600
H1528       H  0.08733569  0.57069825  0.64028256     0.12300
H1529       H  0.21222555  0.62853739  0.65100312     0.12300
C1530       C  0.16053454  0.67995771  0.63387253     0.61900
F1531       F  0.14764300  0.50779055  0.68616076    -0.23300
F1532       F  0.15797594  0.49692307  0.63530087    -0.20600
F1533       F  0.10052472  0.50870641  0.65257081    -0.20300
F1534       F  0.13619209  0.70080246  0.65208108    -0.20400
F1535       F  0.15415294  0.68772101  0.60310857    -0.20700
F1536       F  0.19644993  0.69146058  0.64106421    -0.23400
C1537       C  0.07786053  0.55875859  0.54701688    -0.06200
C1538       C  0.04854779  0.58170806  0.53697118    -0.00300
C1539       C  0.03879824  0.58147964  0.50529947    -0.08800
C1540       C  0.05901499  0.55440446  0.98672752    -0.06200
C1541       C  0.09374242  0.53963150  0.99572351    -0.00300
C1542       C  0.10146449  0.53982400  0.52589155    -0.08700
C1543       C  0.13525657  0.51912824  0.53846549     0.61600
H1544       H  0.08492585  0.55933763  0.57140111     0.12300
H1545       H  0.05127326  0.55416526  0.96248152     0.12300
C1546       C  0.00663365  0.60477134  0.49318084     0.61900
F1547       F  0.16690151  0.54097138  0.53500773    -0.23300
F1548       F  0.14187924  0.48378721  0.02522593    -0.20600
F1549       F  0.13342137  0.51101438  0.07151242    -0.20300
F1550       F  0.01933147  0.64035425  0.48556157    -0.20400
F1551       F  0.97868119  0.60820154  0.51509164    -0.20700
F1552       F  0.97883442  0.55864099  0.98253792    -0.23400
C1553       C  0.96506920  0.69329888  0.72035074    -0.06200
C1554       C  0.99149115  0.70583258  0.69880884    -0.00300
C1555       C  0.02123092  0.72916238  0.70901243    -0.08800
C1556       C  0.02252509  0.74070922  0.73990776    -0.06200
C1557       C  0.99587586  0.72931462  0.76151658    -0.00300
C1558       C  0.96666740  0.70478537  0.75183535    -0.08700
C1559       C  0.93801047  0.69025297  0.77449085     0.61600
H1560       H  0.94281819  0.67498238  0.71227338     0.12300
H1561       H  0.04466654  0.75960647  0.74736377     0.12300
C1562       C  0.05145135  0.74282020  0.68740228     0.61900
F1563       F  0.91494945  0.66329510  0.76099905    -0.23300
F1564       F  0.91600107  0.71987506  0.78498989    -0.20600
F1565       F  0.95579683  0.67383357  0.79930324    -0.20300
F1566       F  0.08192365  0.75738778  0.70325968    -0.20400
F1567       F  0.03688826  0.77105081  0.66943821    -0.20700
F1568       F  0.06405979  0.71339276  0.66884452    -0.23400
C1569       C  0.96003655  0.75111058  0.96130167    -0.06200
C1570       C  0.98810978  0.77593930  0.95145267    -0.00300
C1571       C  0.01650621  0.78731438  0.97236369    -0.08800
C1572       C  0.01771384  0.77280557  0.50147170    -0.06200
C1573       C  0.99021172  0.74721646  0.51098404    -0.00300
C1574       C  0.96052084  0.73540110  0.99102539    -0.08700
C1575       C  0.92837625  0.71310485  0.50080734     0.61600
H1576       H  0.93854131  0.74286224  0.94493622     0.12300
H1577       H  0.04005642  0.77981294  0.51741908     0.12300
C1578       C  0.04836618  0.81280656  0.96276336     0.61900
F1579       F  0.90563491  0.70031107  0.97655802    -0.23300
F1580       F  0.90971165  0.72967701  0.52548225    -0.20600
F1581       F  0.94221723  0.67837370  0.50951386    -0.20300
F1582       F  0.03454337  0.84747945  0.95388633    -0.20400
F1583       F  0.06753463  0.79594009  0.93850032    -0.20700
F1584       F  0.07351202  0.81923802  0.98657591    -0.23400
C1585       C  0.38143588  0.66038212  0.59363864    -0.06200
C1586       C  0.40009854  0.68292080  0.61571727    -0.00300
C1587       C  0.39385603  0.67638873  0.64748641    -0.08800
C1588       C  0.37101052  0.64589937  0.65606283    -0.06200
C1589       C  0.35364555  0.62205196  0.63401854    -0.00300
C1590       C  0.35824244  0.63002161  0.60215569    -0.08700
C1591       C  0.33919456  0.60666871  0.57709718     0.61600
H1592       H  0.38575670  0.66633952  0.56945959     0.12300
H1593       H  0.36735749  0.63989278  0.68034651     0.12300
C1594       C  0.41079135  0.70188752  0.67225214     0.61900
F1595       F  0.34108466  0.62387175  0.54858967    -0.23300
F1596       F  0.30189217  0.60170537  0.58418278    -0.20600
F1597       F  0.35664084  0.57194543  0.57465182    -0.20300
F1598       F  0.40245360  0.73928663  0.66641394    -0.20400
F1599       F  0.44894770  0.69719151  0.67234498    -0.20700
F1600       F  0.39750078  0.69369242  0.70142876    -0.23400
C1601       C  0.32013765  0.62629492  0.87551129    -0.06200
C1602       C  0.35569631  0.61174950  0.88184182    -0.00300
C1603       C  0.35877672  0.57686682  0.89764282    -0.08800
C1604       C  0.32595066  0.55847443  0.90691450    -0.06200
C1605       C  0.29044970  0.57370011  0.90156588    -0.00300
C1606       C  0.28733919  0.60806662  0.88508848    -0.08700
C1607       C  0.24980830  0.62530094  0.87682883     0.61600
H1608       H  0.31823507  0.65259784  0.86307228     0.12300
H1609       H  0.32784364  0.53187158  0.91886770     0.12300
C1610       C  0.39616889  0.55818406  0.90407140     0.61900
F1611       F  0.25348136  0.65459455  0.85617815    -0.23300
F1612       F  0.23286475  0.63972442  0.90318717    -0.20600
F1613       F  0.22707805  0.59817013  0.86319890    -0.20300
F1614       F  0.41669255  0.58037663  0.92442352    -0.20400
F1615       F  0.41566189  0.55318302  0.87675338    -0.20700
F1616       F  0.39207662  0.52297727  0.91723154    -0.23400
C1617       C  0.40643902  0.55337695  0.78742492    -0.06200
C1618       C  0.43092939  0.58209218  0.77831179    -0.00300
C1619       C  0.43844689  0.58688506  0.74642145    -0.08800
C1620       C  0.41665547  0.56704903  0.72477921    -0.06200
C1621       C  0.38786434  0.54312103  0.73418949    -0.00300
C1622       C  0.38490095  0.53331004  0.76565342    -0.08700
C1623       C  0.35858457  0.50314979  0.77731352     0.61600
H1624       H  0.40148646  0.54887437  0.81183040     0.12300
H1625       H  0.41977952  0.57330156  0.70043197     0.12300
C1626       C  0.46771894  0.61343990  0.73383136     0.61900
F1627       F  0.37814080  0.47864114  0.79597083    -0.23300
F1628       F  0.34277944  0.48190957  0.75361063    -0.20600
F1629       F  0.33044469  0.51998067  0.79450414    -0.20300
F1630       F  0.48777876  0.63183239  0.75664039    -0.20400
F1631       F  0.45072457  0.64030707  0.71580043    -0.20700
F1632       F  0.49252862  0.59297342  0.71570325    -0.23400
C1633       C  0.46785582  0.78934733  0.71771390    -0.06200
C1634       C  0.49094752  0.76954437  0.69669112    -0.00300
C1635       C  0.51207310  0.73820137  0.70778440    -0.08800
C1636       C  0.50638775  0.72634527  0.73845993    -0.06200
C1637       C  0.48122725  0.74477548  0.75829581    -0.00300
C1638       C  0.46305919  0.77791820  0.74835776    -0.08700
C1639       C  0.44043359  0.80245748  0.77050957     0.61600
H1640       H  0.45269562  0.81386497  0.70989478     0.12300
H1641       H  0.52059977  0.70156327  0.74695260     0.12300
C1642       C  0.54048311  0.71693336  0.68806441     0.61900
F1643       F  0.42807049  0.83532793  0.75683633    -0.23300
F1644       F  0.46274265  0.81257787  0.79531858    -0.20600
F1645       F  0.40948358  0.78318722  0.78087706    -0.20300
F1646       F  0.56565526  0.74211443  0.67588747    -0.20400
F1647       F  0.52293301  0.69723935  0.66439049    -0.20700
F1648       F  0.56059275  0.69109206  0.70512955    -0.23400
C1649       C  0.44528413  0.71067200  0.95422716    -0.06200
C1650       C  0.48028262  0.69723480  0.94517438    -0.00300
C1651       C  0.51020858  0.69804319  0.96631394    -0.08800
C1652       C  0.50442486  0.71465557  0.99583056    -0.06200
C1653       C  0.47025126  0.73402054  0.50364150    -0.00300
C1654       C  0.43893320  0.72339180  0.48523213    -0.08700
C1655       C  0.39895466  0.72882685  0.49613910     0.61600
H1656       H  0.42289014  0.70943321  0.93742025     0.12300
H1657       H  0.53005197  0.73571937  0.50641150     0.12300
C1658       C  0.54782832  0.68173264  0.95737129     0.61900
F1659       F  0.37352222  0.71207226  0.47611070    -0.23300
F1660       F  0.39059159  0.76695652  0.49802845    -0.20600
F1661       F  0.39434542  0.71265024  0.52472807    -0.20300
F1662       F  0.56141611  0.69987259  0.93161881    -0.20400
F1663       F  0.54397972  0.64359132  0.95057756    -0.20700
F1664       F  0.57365922  0.68580307  0.98098149    -0.23400
C1665       C  0.12398955  0.87295898  0.91501646    -0.06200
C1666       C  0.12424539  0.85795902  0.88464156    -0.00300
C1667       C  0.15622592  0.86447047  0.86564010    -0.08800
C1668       C  0.18657792  0.88464553  0.87827210    -0.06200
C1669       C  0.18586768  0.89938841  0.90837823    -0.00300
C1670       C  0.15425515  0.89373934  0.92717977    -0.08700
C1671       C  0.15285558  0.90913651  0.96008770     0.61600
H1672       H  0.09976816  0.86849386  0.92927389     0.12300
H1673       H  0.21133734  0.88950281  0.86459924     0.12300
C1674       C  0.15889370  0.85126795  0.83202789     0.61900
F1675       F  0.12032249  0.89896150  0.97504319    -0.23300
F1676       F  0.15465551  0.94815089  0.95984154    -0.20600
F1677       F  0.18267279  0.89526764  0.97675832    -0.20300
F1678       F  0.12939622  0.86560891  0.81529622    -0.20400
F1679       F  0.15860194  0.81219739  0.83035947    -0.20700
F1680       F  0.19138558  0.86341938  0.81801278    -0.23400
C1681       C  0.34153848  0.81795861  0.89141088    -0.06200
C1682       C  0.35546423  0.85383913  0.88395590    -0.00300
C1683       C  0.38820517  0.85599060  0.86546394    -0.08800
C1684       C  0.40725625  0.82230277  0.85763238    -0.06200
C1685       C  0.39351608  0.78645663  0.86518535    -0.00300
C1686       C  0.35919410  0.78417527  0.88163903    -0.08700
C1687       C  0.34097853  0.74660287  0.88924126     0.61600
H1688       H  0.31618914  0.81659827  0.90489784     0.12300
H1689       H  0.43313176  0.82375989  0.84511956     0.12300
C1690       C  0.40358767  0.89330064  0.85398122     0.61900
F1691       F  0.31024551  0.75115839  0.90830875    -0.23300
F1692       F  0.36606875  0.72352754  0.90419781    -0.20600
F1693       F  0.32899083  0.72897942  0.86227547    -0.20300
F1694       F  0.41275200  0.91664505  0.87869989    -0.20400
F1695       F  0.37722604  0.91078019  0.83571169    -0.20700
F1696       F  0.43539430  0.88833928  0.83623891    -0.23400
C1697       C  0.44504985  0.88971145  0.51067031    -0.06200
C1698       C  0.43546464  0.89769033  0.54147455    -0.00300
C1699       C  0.40862624  0.92606798  0.54789576    -0.08800
C1700       C  0.38771315  0.94065970  0.52338308    -0.06200
C1701       C  0.39136682  0.92923927  0.99192789    -0.00300
C1702       C  0.42379050  0.90741366  0.98539405    -0.08700
C1703       C  0.43628038  0.89898515  0.95256601     0.61600
H1704       H  0.46585487  0.86802407  0.50622451     0.12300
H1705       H  0.36490688  0.95999229  0.52848829     0.12300
C1706       C  0.39942394  0.94008717  0.58022922     0.61900
F1707       F  0.46876610  0.87781370  0.95163670    -0.23300
F1708       F  0.44304557  0.93254982  0.93758582    -0.20600
F1709       F  0.40890041  0.87880567  0.93709508    -0.20300
F1710       F  0.42341869  0.92591603  0.60219196    -0.20400
F1711       F  0.36330413  0.92988047  0.58753372    -0.20700
F1712       F  0.40215056  0.97910245  0.58131167    -0.23400
C1713       C  0.08177190  0.85818133  0.62991425    -0.06200
C1714       C  0.11924604  0.85250073  0.63785434    -0.00300
C1715       C  0.13585306  0.81682927  0.63262862    -0.08800
C1716       C  0.11359261  0.78737676  0.62073306    -0.06200
C1717       C  0.07533474  0.79218465  0.61408323    -0.00300
C1718       C  0.05923779  0.82878534  0.61811842    -0.08700
C1719       C  0.01874176  0.83746917  0.61040645     0.61600
H1720       H  0.06989410  0.88600071  0.63402738     0.12300
H1721       H  0.12618825  0.75990055  0.61701468     0.12300
C1722       C  0.17707375  0.81016532  0.63855554     0.61900
F1723       F  0.01068197  0.87561579  0.61371253    -0.23300
F1724       F  0.99530173  0.81816448  0.63003121    -0.20600
F1725       F  0.01131900  0.82715686  0.58004754    -0.20300
F1726       F  0.18474768  0.81396221  0.66975089    -0.20400
F1727       F  0.19785563  0.83610741  0.62235460    -0.20700
F1728       F  0.18821748  0.77434533  0.62910739    -0.23400
C1729       C  0.06637897  0.91604597  0.79468154    -0.06200
C1730       C  0.04397830  0.88568534  0.78454926    -0.00300
C1731       C  0.03744274  0.88035516  0.75245554    -0.08800
C1732       C  0.05828977  0.90165635  0.73166732    -0.06200
C1733       C  0.08535775  0.92734888  0.74207236    -0.00300
C1734       C  0.08740672  0.93714303  0.77378541    -0.08700
C1735       C  0.11246075  0.96816466  0.78660009     0.61600
H1736       H  0.07046512  0.92102026  0.81927387     0.12300
H1737       H  0.05598352  0.89531444  0.70709345     0.12300
C1738       C  0.01027820  0.85197456  0.73867454     0.61900
F1739       F  0.09188987  0.99169307  0.80592766    -0.23300
F1740       F  0.12765114  0.99022275  0.76366369    -0.20600
F1741       F  0.14108220  0.95221339  0.80343582    -0.20300
F1742       F  0.98990711  0.83324645  0.76067655    -0.20400
F1743       F  0.02968449  0.82567617  0.72105887    -0.20700
F1744       F  0.98543761  0.87062742  0.71973807    -0.23400
C1745       C  0.22110670  0.01696969  0.56875768    -0.06200
C1746       C  0.20042211  0.98653275  0.58003793    -0.00300
C1747       C  0.19295458  0.95510647  0.56037217    -0.08800
C1748       C  0.20856924  0.95417221  0.53072143    -0.06200
C1749       C  0.23133178  0.98337507  0.51985102    -0.00300
C1750       C  0.23629576  0.01635057  0.53864619    -0.08700
C1751       C  0.25904370  0.04979043  0.52804408     0.61600
H1752       H  0.22628962  0.04074394  0.58423923     0.12300
H1753       H  0.27212583  0.93287303  0.03352694     0.12300
C1754       C  0.17082278  0.92135987  0.57123924     0.61900
F1755       F  0.26062930  0.07832454  0.55027994    -0.23300
F1756       F  0.24343043  0.06479441  0.50169566    -0.20600
F1757       F  0.29498769  0.03810858  0.52198134    -0.20300
F1758       F  0.13508803  0.93265773  0.57900383    -0.20400
F1759       F  0.18848275  0.90604133  0.59651600    -0.20700
F1760       F  0.16790180  0.89327439  0.54872378    -0.23400
C1761       C  0.24029624  0.01004545  0.78448776    -0.06200
C1762       C  0.24821765  0.97599100  0.76859088    -0.00300
C1763       C  0.27198406  0.94889532  0.78279221    -0.08800
C1764       C  0.28520299  0.95631571  0.81283737    -0.06200
C1765       C  0.27481520  0.98884426  0.82939570    -0.00300
C1766       C  0.25277430  0.01668715  0.81501305    -0.08700
C1767       C  0.24260122  0.05310519  0.83194526     0.61600
H1768       H  0.22258436  0.03066261  0.77341232     0.12300
H1769       H  0.30180591  0.93530280  0.82459959     0.12300
C1770       C  0.28261118  0.91146404  0.76735454     0.61900
F1771       F  0.22480364  0.07833693  0.81272290    -0.23300
F1772       F  0.27460950  0.07022665  0.84324576    -0.20600
F1773       F  0.21897106  0.04548549  0.85629879    -0.20300
F1774       F  0.29424349  0.91717534  0.73738737    -0.20400
F1775       F  0.25229796  0.88731791  0.76727571    -0.20700
F1776       F  0.31153301  0.89378211  0.78271771    -0.23400
C1777       C  0.35807434  0.88933027  0.64998810    -0.06200
C1778       C  0.35417231  0.85163430  0.63958267    -0.00300
C1779       C  0.31812155  0.83489076  0.64035957    -0.08800
C1780       C  0.28787444  0.85679148  0.65133163    -0.06200
C1781       C  0.29151470  0.89516485  0.66010673    -0.00300
C1782       C  0.32759896  0.91194409  0.65905471    -0.08700
C1783       C  0.33468503  0.95364338  0.66635238     0.61600
H1784       H  0.38556100  0.90192378  0.64970798     0.12300
H1785       H  0.26047055  0.84403295  0.65227500     0.12300
C1786       C  0.31087670  0.79444454  0.62947813     0.61900
F1787       F  0.37204911  0.96308045  0.66401506    -0.23300
F1788       F  0.32358959  0.96246736  0.69617057    -0.20600
F1789       F  0.31538429  0.97573677  0.64562664    -0.20300
F1790       F  0.33406491  0.76989333  0.64498777    -0.20400
F1791       F  0.31705407  0.79127413  0.59798502    -0.20700
F1792       F  0.27448554  0.78330567  0.63492933    -0.23400
C1793       C  0.37051680  0.34104844  0.65608498    -0.06200
C1794       C  0.39796346  0.34383907  0.67915923    -0.00300
C1795       C  0.39367656  0.37125052  0.70322936    -0.08800
C1796       C  0.36442882  0.39733362  0.70161182    -0.06200
C1797       C  0.33982783  0.39764504  0.67655649    -0.00300
C1798       C  0.34161838  0.36811836  0.65410557    -0.08700
C1799       C  0.31491822  0.36706251  0.62704699     0.61600
H1800       H  0.37410821  0.32004909  0.63785578     0.12300
H1801       H  0.36280856  0.41989930  0.71881392     0.12300
C1802       C  0.42017411  0.37577742  0.73029174     0.61900
F1803       F  0.32069252  0.33570782  0.60810365    -0.23300
F1804       F  0.31953712  0.39909851  0.60950630    -0.20600
F1805       F  0.27877718  0.36567297  0.63805895    -0.20300
F1806       F  0.44730185  0.34827057  0.73055791    -0.20400
F1807       F  0.40028431  0.37362788  0.75760874    -0.20700
F1808       F  0.43738148  0.41072011  0.72906029    -0.23400
C1809       C  0.33873787  0.10540589  0.91161143    -0.06200
C1810       C  0.33952961  0.07897210  0.93549046    -0.00300
C1811       C  0.36492726  0.08405805  0.96021254    -0.08800
C1812       C  0.39330665  0.11098520  0.95734785    -0.06200
C1813       C  0.39586916  0.13397140  0.93128815    -0.00300
C1814       C  0.36682048  0.13317730  0.90909204    -0.08700
C1815       C  0.36746611  0.15912470  0.88154094     0.61600
H1816       H  0.31871240  0.10139327  0.89309770     0.12300
H1817       H  0.41524265  0.11223801  0.97459362     0.12300
C1818       C  0.36499961  0.05912155  0.98843683     0.61900
F1819       F  0.33616533  0.15444540  0.86312157    -0.23300
F1820       F  0.39865886  0.15169216  0.86366217    -0.20600
F1821       F  0.36844909  0.19633759  0.89177583    -0.20300
F1822       F  0.39336278  0.03276661  0.98580852    -0.20400
F1823       F  0.33140061  0.04043228  0.99202005    -0.20700
F1824       F  0.37091185  0.08104117  0.01475655    -0.23400
C1825       C  0.52384798  0.27304911  0.52452437    -0.06200
C1826       C  0.49705138  0.24793469  0.51239019    -0.00300
C1827       C  0.46591659  0.23848292  0.53108261    -0.08800
C1828       C  0.46446141  0.25238640  0.56197282    -0.06200
C1829       C  0.49214132  0.27640305  0.57445448    -0.00300
C1830       C  0.52192365  0.28768619  0.55500342    -0.08700
C1831       C  0.55306029  0.31305070  0.56680530     0.61600
H1832       H  0.54714343  0.28055604  0.50989460     0.12300
H1833       H  0.44175067  0.24411597  0.57693993     0.12300
C1834       C  0.42753882  0.21931431  0.01884725     0.61900
F1835       F  0.58009384  0.31907294  0.54457236    -0.23300
F1836       F  0.57007259  0.29628632  0.59173353    -0.20600
F1837       F  0.53878853  0.34790177  0.57558232    -0.20300
F1838       F  0.43891139  0.18336524  0.01004337    -0.20400
F1839       F  0.41241216  0.23744304  0.99365216    -0.20700
F1840       F  0.40855517  0.20569499  0.54145690    -0.23400
C1841       C  0.45569904  0.21651948  0.81298250    -0.06200
C1842       C  0.48412727  0.19267674  0.82375965    -0.00300
C1843       C  0.51213674  0.18034408  0.80280471    -0.08800
C1844       C  0.51274274  0.19518127  0.77285606    -0.06200
C1845       C  0.48613973  0.22140369  0.76275795    -0.00300
C1846       C  0.45557440  0.23026481  0.78241430    -0.08700
C1847       C  0.42366002  0.25480762  0.77168938     0.61600
H1848       H  0.43401211  0.22502751  0.82904179     0.12300
H1849       H  0.53517681  0.18744892  0.75725298     0.12300
C1850       C  0.54263236  0.15333954  0.81236775     0.61900
F1851       F  0.39695494  0.26001016  0.79446832    -0.23300
F1852       F  0.40659294  0.23799820  0.74632252    -0.20600
F1853       F  0.43703341  0.28978482  0.76370802    -0.20300
F1854       F  0.52678582  0.11979913  0.82160567    -0.20400
F1855       F  0.56291985  0.16933414  0.83631230    -0.20700
F1856       F  0.56708237  0.14505656  0.78843961    -0.23400
C1857       C  0.86269517  0.88714882  0.82390552    -0.06200
C1858       C  0.84391983  0.89599798  0.85144287    -0.00300
C1859       C  0.84939916  0.87313507  0.87767949    -0.08800
C1860       C  0.87652928  0.84423774  0.87625954    -0.06200
C1861       C  0.89812385  0.83819380  0.84960198    -0.00300
C1862       C  0.88917417  0.85795308  0.82237410    -0.08700
C1863       C  0.90852082  0.85066408  0.79180464     0.61600
H1864       H  0.85823574  0.90466380  0.80385921     0.12300
H1865       H  0.88383033  0.82899182  0.89694099     0.12300
C1866       C  0.82921808  0.88158237  0.90779893     0.61900
F1867       F  0.88214910  0.84747012  0.76854754    -0.23300
F1868       F  0.92895548  0.81751594  0.79186307    -0.20600
F1869       F  0.93192081  0.88062654  0.78544820    -0.20300
F1870       F  0.79113333  0.88152945  0.90276185    -0.20400
F1871       F  0.83992826  0.91664043  0.91920418    -0.20700
F1872       F  0.83709190  0.85494836  0.93001338    -0.23400
C1873       C  0.65259890  0.05684575  0.86637549    -0.06200
C1874       C  0.68652887  0.07689549  0.86698371    -0.00300
C1875       C  0.68605994  0.11532541  0.87760426    -0.08800
C1876       C  0.65226755  0.13115909  0.88819747    -0.06200
C1877       C  0.61862198  0.11120327  0.88730712    -0.00300
C1878       C  0.61855980  0.07331885  0.87591965    -0.08700
C1879       C  0.58312624  0.04978836  0.87427149     0.61600
H1880       H  0.65276929  0.02791690  0.85789388     0.12300
H1881       H  0.65163494  0.15989127  0.89693512     0.12300
C1882       C  0.72033879  0.14045464  0.87718121     0.61900
F1883       F  0.59019475  0.01271633  0.86535378    -0.23300
F1884       F  0.55896168  0.06493263  0.85294334    -0.20600
F1885       F  0.56598340  0.04915677  0.90280178    -0.20300
F1886       F  0.73137838  0.14502341  0.84688862    -0.20400
F1887       F  0.74879546  0.12452713  0.89420113    -0.20700
F1888       F  0.71348162  0.17609586  0.88961050    -0.23400
C1889       C  0.58439356  0.85743124  0.56573441    -0.06200
C1890       C  0.58105788  0.83416870  0.59153024    -0.00300
C1891       C  0.60836450  0.83677120  0.61517003    -0.08800
C1892       C  0.63531907  0.86582213  0.61423791    -0.06200
C1893       C  0.63530517  0.89238541  0.59053418    -0.00300
C1894       C  0.61128873  0.88654255  0.56478969    -0.08700
C1895       C  0.61308438  0.91207445  0.53703424     0.61600
H1896       H  0.56350504  0.85509549  0.54769117     0.12300
H1897       H  0.65409836  0.87022328  0.63358956     0.12300
C1898       C  0.60758180  0.80997494  0.64205140     0.61900
F1899       F  0.59174750  0.89823070  0.51269530    -0.23300
F1900       F  0.64962223  0.91470479  0.52703293    -0.20600
F1901       F  0.59999522  0.94764022  0.54494182    -0.20300
F1902       F  0.60714057  0.77317794  0.63078314    -0.20400
F1903       F  0.57605854  0.81655245  0.65971162    -0.20700
F1904       F  0.63855595  0.81429874  0.66089611    -0.23400
C1905       C  0.61212691  0.18473273  0.65283561    -0.06200
C1906       C  0.57348190  0.18102325  0.65813192    -0.00300
C1907       C  0.55691375  0.14457395  0.65457366    -0.08800
C1908       C  0.57945802  0.11408480  0.64461870    -0.06200
C1909       C  0.61755012  0.11850347  0.63831842    -0.00300
C1910       C  0.63448176  0.15414288  0.64316001    -0.08700
C1911       C  0.67621357  0.15955730  0.63940386     0.61600
H1912       H  0.62503729  0.21209226  0.65614545     0.12300
H1913       H  0.56724100  0.08639864  0.64085436     0.12300
C1914       C  0.51595845  0.13715813  0.66131410     0.61900
F1915       F  0.68777136  0.19486647  0.64979506    -0.23300
F1916       F  0.68603191  0.15584428  0.60862597    -0.20600
F1917       F  0.69485160  0.13274285  0.65640860    -0.20300
F1918       F  0.49386319  0.15667039  0.64073493    -0.20400
F1919       F  0.50766347  0.14839723  0.69131378    -0.20700
F1920       F  0.50703071  0.09919052  0.65839032    -0.23400
C1921       C  0.55961378  0.06280748  0.54055503    -0.06200
C1922       C  0.59130727  0.04199660  0.53158764    -0.00300
C1923       C  0.60000338  0.03816823  0.49969075    -0.08800
C1924       C  0.57936292  0.06131449  0.97840782    -0.06200
C1925       C  0.54802010  0.08148447  0.98846155    -0.00300
C1926       C  0.53987081  0.08478629  0.51917096    -0.08700
C1927       C  0.50720078  0.10877868  0.52981354     0.61600
H1928       H  0.55287075  0.06515016  0.56492150     0.12300
H1929       H  0.58886499  0.06490506  0.95490271     0.12300
C1930       C  0.63783711  0.02467189  0.98600696     0.61900
F1931       F  0.49612393  0.09987917  0.55947705    -0.23300
F1932       F  0.47728435  0.10262129  0.51024192    -0.20600
F1933       F  0.51683387  0.14659813  0.52954955    -0.20300
F1934       F  0.64688894  0.99027533  0.50867314    -0.20400
F1935       F  0.65807127  0.03517920  0.47370276    -0.20700
F1936       F  0.63338652  0.01333251  0.95543919    -0.23400
C1937       C  0.76709856  0.02400578  0.99851146    -0.06200
C1938       C  0.74792533  0.99734697  0.50983118    -0.00300
C1939       C  0.76772306  0.96504219  0.49865035    -0.08800
C1940       C  0.76052513  0.95829079  0.96294867    -0.06200
C1941       C  0.77734707  0.99029940  0.95021073    -0.00300
C1942       C  0.78210915  0.02314811  0.96870700    -0.08700
C1943       C  0.80247727  0.05753337  0.95689472     0.61600
H1944       H  0.76895307  0.05000705  0.01187178     0.12300
H1945       H  0.75758446  0.93330741  0.94836540     0.12300
C1946       C  0.77517343  0.93126179  0.51893138     0.61900
F1947       F  0.80308808  0.08701519  0.97831754    -0.23300
F1948       F  0.78522075  0.07032278  0.93046898    -0.20600
F1949       F  0.83896620  0.04764276  0.95054171    -0.20300
F1950       F  0.74188509  0.91385413  0.52627669    -0.20400
F1951       F  0.79305384  0.94297761  0.54575433    -0.20700
F1952       F  0.79768972  0.90471177  0.50427508    -0.23400
C1953       C  0.70484695  0.01457017  0.75024591    -0.06200
C1954       C  0.73214168  0.98912912  0.76034662    -0.00300
C1955       C  0.74390860  0.95967344  0.74001688    -0.08800
C1956       C  0.72846238  0.95754114  0.70986476    -0.06200
C1957       C  0.70187110  0.98385019  0.69941031    -0.00300
C1958       C  0.68992486  0.01297849  0.72014243    -0.08700
C1959       C  0.66418462  0.04447082  0.70995967     0.61600
H1960       H  0.69630687  0.03699942  0.76603599     0.12300
H1961       H  0.73791182  0.93582877  0.69377910     0.12300
C1962       C  0.77374297  0.93174426  0.74960180     0.61900
F1963       F  0.65808234  0.07111129  0.73319769    -0.23300
F1964       F  0.62993568  0.02975170  0.70143031    -0.20600
F1965       F  0.68024312  0.06283381  0.68536631    -0.20300
F1966       F  0.76073869  0.91032923  0.77379837    -0.20400
F1967       F  0.80555121  0.95093723  0.75889213    -0.20700
F1968       F  0.78341087  0.90733775  0.72559870    -0.23400
C1969       C  0.08796556  0.35853743  0.95384479    -0.06200
C1970       C  0.07781505  0.33971110  0.92643747    -0.00300
C1971       C  0.09861866  0.34577690  0.89910613    -0.08800
C1972       C  0.12750738  0.37275648  0.89967570    -0.06200
C1973       C  0.13445109  0.39490929  0.92616090    -0.00300
C1974       C  0.11559455  0.38670840  0.95402397    -0.08700
C1975       C  0.12251757  0.40989038  0.98312576     0.61600
H1976       H  0.07129657  0.35394427  0.97434954     0.12300
H1977       H  0.14176148  0.37992451  0.87846801     0.12300
C1978       C  0.08754586  0.32700424  0.86872998     0.61900
F1979       F  0.10458071  0.39492829  0.00850173    -0.23300
F1980       F  0.10949964  0.44622219  0.97905406    -0.20600
F1981       F  0.16032381  0.41087011  0.98926466    -0.20300
F1982       F  0.05307336  0.34031695  0.85961672    -0.20400
F1983       F  0.08573181  0.28827357  0.87228053    -0.20700
F1984       F  0.11285521  0.33446373  0.84544659    -0.23400
C1985       C  0.87383379  0.19205880  0.88510434    -0.06200
C1986       C  0.89519248  0.18851137  0.91189837    -0.00300
C1987       C  0.89720291  0.15325924  0.92672434    -0.08800
C1988       C  0.87733213  0.12252517  0.91384615    -0.06200
C1989       C  0.85667588  0.12552228  0.88617740    -0.00300
C1990       C  0.85615245  0.16099466  0.87088846    -0.08700
C1991       C  0.83882090  0.16664148  0.83917101     0.61600
H1992       H  0.87217086  0.21941499  0.87467749     0.12300
H1993       H  0.87895265  0.09548998  0.92497789     0.12300
C1994       C  0.91932097  0.14834209  0.95640067     0.61900
F1995       F  0.85566684  0.14279555  0.81771211    -0.23300
F1996       F  0.84320568  0.20321707  0.82882203    -0.20600
F1997       F  0.80109968  0.15946519  0.84033896    -0.20300
F1998       F  0.90754653  0.17451172  0.97838284    -0.20400
F1999       F  0.95691887  0.15346102  0.95079960    -0.20700
F2000       F  0.91476261  0.11262487  0.96850258    -0.23400
C2001       C  0.11075759  0.07987774  0.70991014    -0.06200
C2002       C  0.13517742  0.07635265  0.68472242    -0.00300
C2003       C  0.13339437  0.10306027  0.66072336    -0.08800
C2004       C  0.10548063  0.13116679  0.66194834    -0.06200
C2005       C  0.07844145  0.13190922  0.68543535    -0.00300
C2006       C  0.08169821  0.10651103  0.71038585    -0.08700
C2007       C  0.05357624  0.10336736  0.73647444     0.61600
H2008       H  0.11189376  0.05884803  0.72790419     0.12300
H2009       H  0.10200063  0.15016843  0.64273858     0.12300
C2010       C  0.15811527  0.09928638  0.63238731     0.61900
F2011       F  0.07191222  0.10682951  0.76452180    -0.23300
F2012       F  0.03669316  0.06822740  0.73482803    -0.20600
F2013       F  0.02603055  0.13057267  0.73568558    -0.20300
F2014       F  0.15084379  0.06538496  0.61723657    -0.20400
F2015       F  0.19516764  0.10025535  0.64121302    -0.20700
F2016       F  0.15208304  0.12819101  0.61174049    -0.23400
C2017       C  0.85652129  0.09024902  0.61722698    -0.06200
C2018       C  0.85218629  0.11887316  0.63997116    -0.00300
C2019       C  0.81611483  0.12562948  0.65257916    -0.08800
C2020       C  0.78638594  0.10258216  0.64262975    -0.06200
C2021       C  0.79104092  0.07343308  0.62067320    -0.00300
C2022       C  0.82659120  0.06742899  0.60721151    -0.08700
C2023       C  0.83295329  0.03777226  0.58196482     0.61600
H2024       H  0.88399430  0.08537841  0.60757034     0.12300
H2025       H  0.75894233  0.10670122  0.65244083     0.12300
C2026       C  0.80864598  0.15596535  0.67706414     0.61900
F2027       F  0.86863929  0.03961191  0.56986806    -0.23300
F2028       F  0.80808591  0.04321243  0.55799239    -0.20600
F2029       F  0.82808128  0.00203094  0.59381112    -0.20300
F2030       F  0.81744955  0.19112246  0.66557330    -0.20400
F2031       F  0.82970138  0.14895059  0.70314660    -0.20700
F2032       F  0.77155481  0.15698571  0.68593534    -0.23400
C2033       C  0.88441749  0.03312064  0.75393056    -0.06200
C2034       C  0.89347859  0.04192560  0.78471082    -0.00300
C2035       C  0.92680705  0.06238415  0.79115070    -0.08800
C2036       C  0.94603239  0.07875640  0.76624114    -0.06200
C2037       C  0.93359933  0.07398949  0.73569848    -0.00300
C2038       C  0.90447583  0.04809968  0.72926069    -0.08700
C2039       C  0.89114838  0.03826580  0.69692774     0.61600
H2040       H  0.85982195  0.01620908  0.74900818     0.12300
H2041       H  0.96860579  0.09843779  0.77067970     0.12300
C2042       C  0.94067585  0.06935019  0.82389969     0.61900
F2043       F  0.85738617  0.05593508  0.69161803    -0.23300
F2044       F  0.88622445  0.99955727  0.69419850    -0.20600
F2045       F  0.91640121  0.04876996  0.67458707    -0.20300
F2046       F  0.94607025  0.03514083  0.83831951    -0.20400
F2047       F  0.91501626  0.09067264  0.84037047    -0.20700
F2048       F  0.97432142  0.08857161  0.82439780    -0.23400
C2049       C  0.95063910  0.21750507  0.57335784    -0.06200
C2050       C  0.98398200  0.19897517  0.57974532    -0.00300
C2051       C  0.01244718  0.19735615  0.55729390    -0.08800
C2052       C  0.00605805  0.21417228  0.52831078    -0.06200
C2053       C  0.97226488  0.23282409  0.52149060    -0.00300
C2054       C  0.94410369  0.23509382  0.54501131    -0.08700
C2055       C  0.90863906  0.25935165  0.04091867     0.61600
H2056       H  0.92968098  0.21850108  0.59139924     0.12300
H2057       H  0.02740693  0.21249762  0.51066699     0.12300
C2058       C  0.04881883  0.17721716  0.56394554     0.61900
F2059       F  0.88728795  0.25820164  0.56884305    -0.23300
F2060       F  0.88651497  0.24098426  0.01923851    -0.20600
F2061       F  0.91513139  0.29609047  0.03205733    -0.20300
F2062       F  0.04164984  0.13995658  0.57118181    -0.20400
F2063       F  0.06660621  0.19467730  0.58867424    -0.20700
F2064       F  0.07266379  0.17761792  0.53879876    -0.23400
C2065       C  0.94405608  0.25164447  0.78514195    -0.06200
C2066       C  0.97614299  0.23967982  0.76929371    -0.00300
C2067       C  0.01161115  0.24473133  0.78341181    -0.08800
C2068       C  0.01322538  0.25887095  0.81410957    -0.06200
C2069       C  0.98093145  0.27041936  0.82986066    -0.00300
C2070       C  0.94595430  0.26817615  0.81476033    -0.08700
C2071       C  0.91094798  0.28473274  0.82918655     0.61600
H2072       H  0.91734685  0.24898109  0.77360348     0.12300
H2073       H  0.03968100  0.26122584  0.82602384     0.12300
C2074       C  0.04740772  0.23484218  0.76652767     0.61900
F2075       F  0.87915126  0.27464349  0.81288638    -0.23300
F2076       F  0.91369234  0.32365213  0.82929404    -0.20600
F2077       F  0.90686391  0.27250270  0.85910071    -0.20300
F2078       F  0.05159417  0.25811289  0.74137355    -0.20400
F2079       F  0.04635299  0.19765277  0.75652501    -0.20700
F2080       F  0.07841714  0.23940653  0.78529749    -0.23400
C2081       C  0.84354438  0.60217092  0.62333187    -0.06200
C2082       C  0.84190871  0.57578091  0.59883912    -0.00300
C2083       C  0.86450323  0.58119959  0.57243212    -0.08800
C2084       C  0.89137507  0.61003736  0.57299411    -0.06200
C2085       C  0.89652008  0.63312859  0.59919909    -0.00300
C2086       C  0.87093961  0.63085177  0.62406904    -0.08700
C2087       C  0.87518635  0.65577844  0.65259919     0.61600
H2088       H  0.82601107  0.59766259  0.64330515     0.12300
H2089       H  0.91098059  0.61242184  0.55407801     0.12300
C2090       C  0.86165032  0.55522510  0.54443290     0.61900
F2091       F  0.84609843  0.65091121  0.67319933    -0.23300
F2092       F  0.87581186  0.69336220  0.64427019    -0.20600
F2093       F  0.90811819  0.64691227  0.66738220    -0.20300
F2094       F  0.82473280  0.55231528  0.53553088    -0.20400
F2095       F  0.87530291  0.51991612  0.55156426    -0.20700
F2096       F  0.88184616  0.56867189  0.51963918    -0.23400
C2097       C  0.68646979  0.35794877  0.62849041    -0.06200
C2098       C  0.68487435  0.39783144  0.62705632    -0.00300
C2099       C  0.65191722  0.41650085  0.63781022    -0.08800
C2100       C  0.62164360  0.39436111  0.64766585    -0.06200
C2101       C  0.62354248  0.35486010  0.64867417    -0.00300
C2102       C  0.65662712  0.33620873  0.63967201    -0.08700
C2103       C  0.66018851  0.29357217  0.64162888     0.61600
H2104       H  0.71154077  0.34356274  0.62089247     0.12300
H2105       H  0.59597772  0.40781408  0.65518203     0.12300
C2106       C  0.64824313  0.45932689  0.63980468     0.61900
F2107       F  0.69400501  0.28071522  0.63014648    -0.23300
F2108       F  0.63204880  0.27635869  0.62473729    -0.20600
F2109       F  0.65753962  0.28286305  0.67215153    -0.20300
F2110       F  0.64952151  0.47444603  0.61053327    -0.20400
F2111       F  0.67672027  0.47415879  0.65781640    -0.20700
F2112       F  0.61489011  0.47054921  0.65323050    -0.23400
C2113       C  0.89746116  0.35281955  0.63699895    -0.06200
C2114       C  0.85844303  0.35020794  0.63777926    -0.00300
C2115       C  0.84153357  0.31679677  0.64825855    -0.08800
C2116       C  0.86453417  0.28671631  0.65767855    -0.06200
C2117       C  0.90388395  0.28885029  0.65673857    -0.00300
C2118       C  0.92067685  0.32273183  0.64612393    -0.08700
C2119       C  0.96271042  0.32784947  0.64489168     0.61600
H2120       H  0.90964492  0.37877182  0.62865623     0.12300
H2121       H  0.85169426  0.26096186  0.66566522     0.12300
C2122       C  0.79939449  0.31347846  0.65000987     0.61900
F2123       F  0.97256666  0.36426342  0.63687958    -0.23300
F2124       F  0.97781792  0.30337283  0.62303080    -0.20600
F2125       F  0.97805507  0.32078035  0.67358455    -0.20300
F2126       F  0.78437953  0.31503200  0.62061502    -0.20400
F2127       F  0.78514699  0.34293944  0.66780517    -0.20700
F2128       F  0.78835408  0.27982967  0.66312647    -0.23400
C2129       C  0.90087963  0.42082160  0.98257809    -0.06200
C2130       C  0.93062906  0.39745248  0.99095701    -0.00300
C2131       C  0.94259200  0.39530437  0.52320404    -0.08800
C2132       C  0.91936366  0.41340107  0.54492361    -0.06200
C2133       C  0.88576919  0.43058939  0.53592308    -0.00300
C2134       C  0.87820080  0.43520191  0.50397359    -0.08700
C2135       C  0.84429598  0.45560854  0.49141053     0.61600
H2136       H  0.89281059  0.42238375  0.95846265     0.12300
H2137       H  0.92589879  0.41093704  0.56930789     0.12300
C2138       C  0.97740265  0.37574416  0.53479989     0.61900
F2139       F  0.85962647  0.48932481  0.97395467    -0.23300
F2140       F  0.82888350  0.48036102  0.51276976    -0.20600
F2141       F  0.81767918  0.42933391  0.48250554    -0.20300
F2142       F  0.99785794  0.36177464  0.00827126    -0.20400
F2143       F  0.96748985  0.34650176  0.55398682    -0.20700
F2144       F  0.99875750  0.40145818  0.55147350    -0.23400
C2145       C  0.61318923  0.57973229  0.82130950    -0.06200
C2146       C  0.63516692  0.57851231  0.84800681    -0.00300
C2147       C  0.63218370  0.60806693  0.87028020    -0.08800
C2148       C  0.60338110  0.63512446  0.86716404    -0.06200
C2149       C  0.57796224  0.63294160  0.84246595    -0.00300
C2150       C  0.58489098  0.60677904  0.81795899    -0.08700
C2151       C  0.56079367  0.60556620  0.78924657     0.61600
H2152       H  0.61604148  0.55715345  0.80425254     0.12300
H2153       H  0.59823354  0.65558103  0.88556167     0.12300
C2154       C  0.65767802  0.60915417  0.89814301     0.61900
F2155       F  0.57802230  0.58588274  0.76529982    -0.23300
F2156       F  0.55427626  0.64203108  0.77949189    -0.20600
F2157       F  0.52735804  0.58788227  0.79559173    -0.20300
F2158       F  0.69437397  0.60945593  0.88830631    -0.20400
F2159       F  0.65166330  0.57762000  0.91598391    -0.20700
F2160       F  0.65170904  0.64109698  0.91635102    -0.23400
C2161       C  0.56477363  0.32148158  0.91669295    -0.06200
C2162       C  0.57884772  0.28587706  0.90780109    -0.00300
C2163       C  0.61308646  0.28395749  0.89126095    -0.08800
C2164       C  0.63084821  0.31781669  0.88307442    -0.06200
C2165       C  0.61659954  0.35340611  0.89162642    -0.00300
C2166       C  0.58326140  0.35537681  0.90940316    -0.08700
C2167       C  0.56648864  0.39279955  0.92013708     0.61600
H2168       H  0.53912344  0.32250606  0.92987111     0.12300
H2169       H  0.65652089  0.31676501  0.86993018     0.12300
C2170       C  0.63116437  0.24660867  0.88212318     0.61900
F2171       F  0.53324433  0.38793001  0.93585532    -0.23300
F2172       F  0.55927682  0.41522794  0.89492460    -0.20600
F2173       F  0.59094634  0.41117718  0.94000484    -0.20300
F2174       F  0.60583985  0.22394536  0.86643888    -0.20400
F2175       F  0.64335227  0.22865044  0.90842868    -0.20700
F2176       F  0.66172876  0.25145537  0.86304790    -0.23400
C2177       C  0.56238441  0.41712528  0.73900459    -0.06200
C2178       C  0.54218750  0.38526005  0.74854742    -0.00300
C2179       C  0.53785632  0.37889134  0.78088507    -0.08800
C2180       C  0.55741696  0.40225940  0.80182760    -0.06200
C2181       C  0.58197805  0.43014044  0.79171547    -0.00300
C2182       C  0.58276043  0.43953687  0.76008110    -0.08700
C2183       C  0.60567738  0.47178317  0.74732768     0.61600
H2184       H  0.56515761  0.42270787  0.71453082     0.12300
H2185       H  0.55696851  0.39604173  0.82627490     0.12300
C2186       C  0.51352336  0.34769370  0.79397013     0.61900
F2187       F  0.58271339  0.49515815  0.73040850    -0.23300
F2188       F  0.63315277  0.45733059  0.72806977    -0.20600
F2189       F  0.62233370  0.49360154  0.77024068    -0.20300
F2190       F  0.52773191  0.31237558  0.78671689    -0.20400
F2191       F  0.47793836  0.35093364  0.78246194    -0.20700
F2192       F  0.51091483  0.35015974  0.82588709    -0.23400
C2193       C  0.82100717  0.41292513  0.86717345    -0.06200
C2194       C  0.78644024  0.39483927  0.87097842    -0.00300
C2195       C  0.78555632  0.35807145  0.88397838    -0.08800
C2196       C  0.81939692  0.34156140  0.89319750    -0.06200
C2197       C  0.85369436  0.35997460  0.88962535    -0.00300
C2198       C  0.85475710  0.39620818  0.87606978    -0.08700
C2199       C  0.89090979  0.41803509  0.87183700     0.61600
H2200       H  0.82149803  0.44066567  0.85697574     0.12300
H2201       H  0.81942854  0.31385677  0.90353475     0.12300
C2202       C  0.74951900  0.33625067  0.88890268     0.61900
F2203       F  0.88473766  0.45398268  0.86065039    -0.23300
F2204       F  0.91363483  0.39916144  0.85093726    -0.20600
F2205       F  0.90917224  0.42192476  0.89982552    -0.20300
F2206       F  0.73357795  0.32713533  0.86064137    -0.20400
F2207       F  0.72492507  0.35778500  0.90641568    -0.20700
F2208       F  0.75548031  0.30275234  0.90433057    -0.23400
C2209       C  0.68654851  0.46002560  0.97245534    -0.06200
C2210       C  0.70412441  0.48707631  0.95402397    -0.00300
C2211       C  0.73319326  0.50945263  0.96710862    -0.08800
C2212       C  0.74356994  0.50369938  0.99814723    -0.06200
C2213       C  0.72739411  0.47909886  0.51532932    -0.00300
C2214       C  0.69743208  0.45794495  0.50236327    -0.08700
C2215       C  0.67771994  0.42726600  0.52032191     0.61600
H2216       H  0.66476380  0.44282732  0.96209337     0.12300
H2217       H  0.76574757  0.52042691  0.00834296     0.12300
C2218       C  0.75393867  0.53873001  0.94843991     0.61900
F2219       F  0.64573929  0.41482639  0.50537889    -0.23300
F2220       F  0.66746090  0.44109652  0.54915677    -0.20600
F2221       F  0.70109539  0.39651684  0.52370835    -0.20300
F2222       F  0.72882179  0.56176630  0.93346032    -0.20400
F2223       F  0.77661398  0.52082687  0.92691220    -0.20700
F2224       F  0.77632485  0.56151909  0.96697323    -0.23400
C2225       C  0.73914141  0.50946013  0.74829281    -0.06200
C2226       C  0.74745521  0.47641858  0.76457838    -0.00300
C2227       C  0.77287946  0.44975797  0.75132634    -0.08800
C2228       C  0.78629311  0.45566883  0.72121680    -0.06200
C2229       C  0.77532995  0.48698829  0.70402426    -0.00300
C2230       C  0.75266878  0.51520947  0.71809075    -0.08700
C2231       C  0.74318620  0.55139605  0.70140880     0.61600
H2232       H  0.72055819  0.53002934  0.75883968     0.12300
H2233       H  0.80390362  0.43460304  0.71014135     0.12300
C2234       C  0.78621993  0.41513414  0.76858823     0.61900
F2235       F  0.72705150  0.57790797  0.72111418    -0.23300
F2236       F  0.71839928  0.54388269  0.67763962    -0.20600
F2237       F  0.77534681  0.56703457  0.68941705    -0.20300
F2238       F  0.75777652  0.38890917  0.77052878    -0.20400
F2239       F  0.79782091  0.42561633  0.79794836    -0.20700
F2240       F  0.81606977  0.39773938  0.75385838    -0.23400
loop_ 
_geom_bond_atom_site_label_1 
_geom_bond_atom_site_label_2 
_geom_bond_distance 
_geom_bond_site_symmetry_2 
_ccdc_geom_bond_type 
O1           C16   1.256       .  A
O1           Al9   1.910       .  S
C2           O12   1.266       .  A
C2            O3   1.254       .  A
C2         C1090   1.491       .  S
O3           Al5   1.880       .  S
O4            C6   1.275       .  A
O4           Al5   1.947       .  S
Al5          O13   1.947       .  S
Al5          O15   1.917       .  S
Al5          O14   1.789       .  S
C6           O19   1.262       .  A
C6         C1074   1.489       .  S
O7           C17   1.260       .  A
O7           Al9   1.927       .  S
O8           C21   1.272       .  A
O8          Al18   1.942       .  S
Al9          O22   1.887       .  S
Al9          O19   1.879       .  S
Al9          O14   1.782       .  S
O10          C17   1.255       .  A
O10         Al18   1.902       .  S
O11          C20   1.254       .  A
O11         Al18   1.873       .  S
O12         Al18   1.930       .  S
O13          C20   1.266       .  A
O14         Al18   1.782       .  S
O15          C16   1.260       .  A
C16        C1106   1.487       .  S
C17        C1045   1.497       .  S
C20        C1026   1.483       .  S
C21          O22   1.263       .  A
C21        C1061   1.474       .  S
O23          C38   1.265       .  A
O23         Al31   1.880       .  S
C24          O34   1.258       .  A
C24          O25   1.265       .  A
C24        C1109   1.481       .  S
O25         Al27   1.921       .  S
O26          C28   1.254       .  A
O26         Al27   1.900       .  S
Al27         O35   1.872       .  S
Al27         O37   1.921       .  S
Al27         O36   1.787       .  S
C28          O41   1.256       .  A
C28         C994   1.484       .  S
O29          C39   1.266       .  A
O29         Al31   1.889       .  S
O30          C43   1.260       .  A
O30         Al40   1.914       .  S
Al31         O44   1.923       .  S
Al31         O41   1.920       .  S
Al31         O36   1.788       .  S
O32          C39   1.271       .  A
O32         Al40   1.947       .  S
O33          C42   1.262       .  A
O33         Al40   1.937       .  S
O34         Al40   1.884       .  S
O35          C42   1.252       .  A
O36         Al40   1.792       .  S
O37          C38   1.269       .  A
C38        C1013   1.471       .  S
C39         C978   1.503       .  S
C42         C962   1.481       .  S
C43          O44   1.259       .  A
C43        C1093   1.492       .  S
O45          C60   1.258       .  A
O45         Al53   1.891       .  S
C46          O56   1.262       .  A
C46          O47   1.264   1_655  A
C46         C930   1.475       .  S
O47         Al49   1.928   1_455  S
O48          C50   1.264       .  A
O48         Al49   1.920       .  S
Al49         O57   1.920   1_655  S
Al49         O59   1.921       .  S
Al49         O58   1.796       .  S
C50          O63   1.264       .  A
C50         C997   1.505       .  S
O51          C61   1.257       .  A
O51         Al53   1.912       .  S
O52          C65   1.266       .  A
O52         Al62   1.914       .  S
Al53         O66   1.907       .  S
Al53         O63   1.911       .  S
Al53         O58   1.784       .  S
O54          C61   1.256       .  A
O54         Al62   1.893       .  S
O55          C64   1.260       .  A
O55         Al62   1.911   1_455  S
O56         Al62   1.898       .  S
O57          C64   1.263       .  A
O58         Al62   1.789       .  S
O59          C60   1.259       .  A
C60         C946   1.483       .  S
C61         C898   1.496       .  S
C64         C885   1.478       .  S
C65          O66   1.265       .  A
C65         C917   1.472       .  S
O67          C82   1.263       .  A
O67         Al75   1.883       .  S
C68          O78   1.262       .  A
C68          O69   1.265       .  A
C68         C949   1.483       .  S
O69         Al71   1.921       .  S
O70          C72   1.252       .  A
O70         Al71   1.893       .  S
Al71         O79   1.864   1_655  S
Al71         O81   1.928       .  S
Al71         O80   1.786       .  S
C72          O85   1.255       .  A
C72        C1077   1.485       .  S
O73          C83   1.265       .  A
O73         Al75   1.893       .  S
O74          C87   1.266       .  A
O74         Al84   1.938       .  S
Al75         O88   1.899       .  S
Al75         O85   1.907       .  S
Al75         O80   1.780       .  S
O76          C83   1.271       .  A
O76         Al84   1.942       .  S
O77          C86   1.262       .  A
O77         Al84   1.937   1_455  S
O78         Al84   1.900       .  S
O79          C86   1.252       .  A
O80         Al84   1.792       .  S
O81          C82   1.269       .  A
C82        C1010   1.463       .  S
C83         C866   1.474       .  S
C86         C850   1.478       .  S
C87          O88   1.253       .  A
C87        C2053   1.501       .  S
O89         C104   1.260       .  A
O89         Al97   1.867       .  S
C90         O100   1.259       .  A
C90          O91   1.269       .  A
C90         C837   1.497       .  S
O91         Al93   1.943   1_565  S
O92          C94   1.251       .  A
O92         Al93   1.881       .  S
Al93        O101   1.861   1_545  S
Al93        O103   1.947       .  S
Al93        O102   1.784       .  S
C94         O107   1.253       .  A
C94         C789   1.472       .  S
O95         C105   1.262       .  A
O95         Al97   1.886       .  S
O96         C109   1.258       .  A
O96        Al106   1.916       .  S
Al97        O110   1.901       .  S
Al97        O107   1.903       .  S
Al97        O102   1.782       .  S
O98         C105   1.274       .  A
O98        Al106   1.960   1_545  S
O99         C108   1.264       .  A
O99        Al106   1.947       .  S
O100       Al106   1.878       .  S
O101        C108   1.251       .  A
O102       Al106   1.791   1_545  S
O103        C104   1.274       .  A
C104        C802   1.481       .  S
C105        C901   1.488       .  S
C108        C773   1.484       .  S
C109        O110   1.260   1_565  A
C109        C818   1.495       .  S
O111        C126   1.259   1_545  A
O111       Al119   1.909       .  S
C112        O122   1.266       .  A
C112        O113   1.256       .  A
C112        C821   1.480       .  S
O113       Al115   1.877       .  S
O114        C116   1.276       .  A
O114       Al115   1.956   1_545  S
Al115       O123   1.952       .  S
Al115       O125   1.910       .  S
Al115       O124   1.786   1_565  S
C116        O129   1.259       .  A
C116        C754   1.502       .  S
O117        C127   1.256       .  A
O117       Al119   1.912       .  S
O118        C131   1.269       .  A
O118       Al128   1.945       .  S
Al119       O132   1.880       .  S
Al119       O129   1.881       .  S
Al119       O124   1.782       .  S
O120        C127   1.258       .  A
O120       Al128   1.892       .  S
O121        C130   1.254       .  A
O121       Al128   1.874   1_565  S
O122       Al128   1.941   1_565  S
O123        C130   1.267       .  A
O124       Al128   1.785       .  S
O125        C126   1.260       .  A
C126        C834   1.478       .  S
C127        C869   1.496       .  S
C130        C738   1.483       .  S
C131        O132   1.263       .  A
C131        C914   1.487       .  S
O133        C148   1.259       .  A
O133       Al141   1.887       .  S
C134        O144   1.261       .  A
C134        O135   1.266       .  A
C134        C722   1.491       .  S
O135       Al137   1.935       .  S
O136        C138   1.254       .  A
O136       Al137   1.884       .  S
Al137       O145   1.860       .  S
Al137       O147   1.928       .  S
Al137       O146   1.787       .  S
C138        O151   1.264       .  A
C138        C757   1.491       .  S
O139        C149   1.260       .  A
O139       Al141   1.886       .  S
O140        C153   1.261       .  A
O140       Al150   1.920       .  S
Al141       O154   1.929       .  S
Al141       O151   1.938       .  S
Al141       O146   1.783       .  S
O142        C149   1.272       .  A
O142       Al150   1.950       .  S
O143        C152   1.264       .  A
O143       Al150   1.945       .  S
O144       Al150   1.898       .  S
O145        C152   1.253       .  A
O146       Al150   1.796       .  S
O147        C148   1.265       .  A
C148        C805   1.473       .  S
C149       C1042   1.495       .  S
C152        C693   1.480       .  S
C153        O154   1.265       .  A
C153       C1826   1.501       .  S
O155        C170   1.260       .  A
O155       Al163   1.907       .  S
C156        O166   1.268       .  A
C156        O157   1.258       .  A
C156        C709   1.492       .  S
O157       Al159   1.888       .  S
O158        C160   1.270       .  A
O158       Al159   1.942       .  S
Al159       O167   1.928       .  S
Al159       O169   1.919       .  S
Al159       O168   1.794       .  S
C160        O173   1.263       .  A
C160        C786   1.496       .  S
O161        C171   1.257       .  A
O161       Al163   1.922       .  S
O162        C175   1.274       .  A
O162       Al172   1.953       .  S
Al163       O176   1.880       .  S
Al163       O173   1.873       .  S
Al163       O168   1.781       .  S
O164        C171   1.253       .  A
O164       Al172   1.883       .  S
O165        C174   1.254       .  A
O165       Al172   1.861       .  S
O166       Al172   1.942       .  S
O167        C174   1.262       .  A
O168       Al172   1.782       .  S
O169        C170   1.258       .  A
C170        C725   1.490       .  S
C171        C981   1.479       .  S
C174        C674   1.476       .  S
C175        O176   1.260       .  A
C175       C1058   1.490       .  S
O177        C192   1.260       .  A
O177       Al185   1.867       .  S
C178        O188   1.256       .  A
C178        O179   1.265       .  A
C178        C626   1.482       .  S
O179       Al181   1.933       .  S
O180        C182   1.254       .  A
O180       Al181   1.888       .  S
Al181       O189   1.859   1_565  S
Al181       O191   1.941       .  S
Al181       O190   1.785       .  S
C182        O195   1.259       .  A
C182        C594   1.477       .  S
O183        C193   1.264       .  A
O183       Al185   1.877       .  S
O184        C197   1.262       .  A
O184       Al194   1.916       .  S
Al185       O198   1.903       .  S
Al185       O195   1.926       .  S
Al185       O190   1.779       .  S
O186        C193   1.272       .  A
O186       Al194   1.948       .  S
O187        C196   1.267       .  A
O187       Al194   1.951   1_545  S
O188       Al194   1.876       .  S
O189        C196   1.252       .  A
O190       Al194   1.785       .  S
O191        C192   1.270       .  A
C192        C613   1.466       .  S
C193        C661   1.496       .  S
C196        C882   1.481       .  S
C197        O198   1.256       .  A
C197        C642   1.496       .  S
O199        C214   1.265       .  A
O199       Al207   1.915       .  S
C200        O210   1.263       .  A
C200        O201   1.256       .  A
C200        C645   1.470       .  S
O201       Al203   1.879       .  S
O202        C204   1.269       .  A
O202       Al203   1.945       .  S
Al203       O211   1.942   1_565  S
Al203       O213   1.909   1_565  S
Al203       O212   1.792       .  S
C204        O217   1.263       .  A
C204        C549   1.487       .  S
O205        C215   1.264       .  A
O205       Al207   1.941       .  S
O206        C219   1.268       .  A
O206       Al216   1.943       .  S
Al207       O220   1.888       .  S
Al207       O217   1.882       .  S
Al207       O212   1.777       .  S
O208        C215   1.253       .  A
O208       Al216   1.889       .  S
O209        C218   1.255       .  A
O209       Al216   1.863   1_545  S
O210       Al216   1.921       .  S
O211        C218   1.265       .  A
O212       Al216   1.778       .  S
O213        C214   1.259   1_545  A
C214       C1749   1.492       .  S
C215        C562   1.498       .  S
C218        C690   1.476       .  S
C219        O220   1.263       .  A
C219        C581   1.485       .  S
O221        C236   1.261       .  A
O221       Al229   1.876       .  S
C222        O232   1.254       .  A
C222        O223   1.266       .  A
C222        C530   1.467       .  S
O223       Al225   1.935       .  S
O224        C226   1.256       .  A
O224       Al225   1.898       .  S
Al225       O233   1.878       .  S
Al225       O235   1.935       .  S
Al225       O234   1.778       .  S
C226        O239   1.262       .  A
C226        C482   1.493       .  S
O227        C237   1.260       .  A
O227       Al229   1.889       .  S
O228        C241   1.259       .  A
O228       Al238   1.902       .  S
Al229       O242   1.920       .  S
Al229       O239   1.923       .  S
Al229       O234   1.780       .  S
O230        C237   1.276       .  A
O230       Al238   1.959       .  S
O231        C240   1.267       .  A
O231       Al238   1.957       .  S
O232       Al238   1.863       .  S
O233        C240   1.255       .  A
O234       Al238   1.783       .  S
O235        C236   1.269       .  A
C236        C498   1.468       .  S
C237        C565   1.498       .  S
C240       C1029   1.487       .  S
C241        O242   1.262       .  A
C241        C517   1.476       .  S
O243        C258   1.258       .  A
O243       Al251   1.885       .  S
C244        O254   1.264       .  A
C244        O245   1.264       .  A
C244        C514   1.497       .  S
O245       Al247   1.929       .  S
O246        C248   1.261       .  A
O246       Al247   1.907       .  S
Al247       O255   1.928       .  S
Al247       O257   1.928       .  S
Al247       O256   1.791       .  S
C248        O261   1.258       .  A
C248        C466   1.477       .  S
O249        C259   1.258       .  A
O249       Al251   1.909       .  S
O250        C263   1.266       .  A
O250       Al260   1.921       .  S
Al251       O264   1.902       .  S
Al251       O261   1.901       .  S
Al251       O256   1.780       .  S
O252        C259   1.258       .  A
O252       Al260   1.895       .  S
O253        C262   1.256       .  A
O253       Al260   1.893       .  S
O254       Al260   1.886       .  S
O255        C262   1.264       .  A
O256       Al260   1.784       .  S
O257        C258   1.265       .  A
C258        C533   1.492       .  S
C259        C658   1.498       .  S
C262        C770   1.476       .  S
C263        O264   1.262       .  A
C263        C578   1.472       .  S
O265        C280   1.258   1_455  A
O265       Al273   1.895       .  S
C266        O276   1.264       .  A
C266        O267   1.255       .  A
C266        C434   1.474       .  S
O267       Al269   1.871       .  S
O268        C270   1.270       .  A
O268       Al269   1.944   1_455  S
Al269       O277   1.943       .  S
Al269       O279   1.905       .  S
Al269       O278   1.787   1_655  S
C270        O283   1.264       .  A
C270        C597   1.501       .  S
O271        C281   1.258       .  A
O271       Al273   1.913       .  S
O272        C285   1.268       .  A
O272       Al282   1.932       .  S
Al273       O286   1.894       .  S
Al273       O283   1.888       .  S
Al273       O278   1.779       .  S
O274        C281   1.259       .  A
O274       Al282   1.898       .  S
O275        C284   1.256       .  A
O275       Al282   1.875   1_655  S
O276       Al282   1.932   1_655  S
O277        C284   1.266       .  A
O278       Al282   1.784       .  S
O279        C280   1.259       .  A
C280        C453   1.476       .  S
C281        C402   1.476       .  S
C284        C965   1.479       .  S
C285        O286   1.263       .  A
C285        C418   1.471       .  S
O287        C302   1.262       .  A
O287       Al295   1.878       .  S
C288        O298   1.259       .  A
C288        O289   1.268       .  A
C288        C450   1.479       .  S
O289       Al291   1.932   1_655  S
O290        C292   1.257       .  A
O290       Al291   1.898       .  S
Al291       O299   1.877   1_455  S
Al291       O301   1.930       .  S
Al291       O300   1.777       .  S
C292        O305   1.253       .  A
C292        C546   1.495       .  S
O293        C303   1.261       .  A
O293       Al295   1.882       .  S
O294        C307   1.260   1_655  A
O294       Al304   1.910       .  S
Al295       O308   1.898       .  S
Al295       O305   1.904       .  S
Al295       O300   1.779       .  S
O296        C303   1.272       .  A
O296       Al304   1.955   1_455  S
O297        C306   1.264       .  A
O297       Al304   1.943       .  S
O298       Al304   1.878       .  S
O299        C306   1.253       .  A
O300       Al304   1.790   1_455  S
O301        C302   1.270       .  A
C302        C610   1.471       .  S
C303        C386   1.474       .  S
C306        C741   1.482       .  S
C307        O308   1.260       .  A
C307        C437   1.484       .  S
O309        C324   1.264       .  A
O309       Al317   1.882       .  S
C310        O320   1.257       .  A
C310        O311   1.263       .  A
C310        C370   1.484       .  S
O311       Al313   1.909       .  S
O312        C314   1.254       .  A
O312       Al313   1.898       .  S
Al313       O321   1.853       .  S
Al313       O323   1.923       .  S
Al313       O322   1.784       .  S
C314        O327   1.260       .  A
C314        C469   1.493       .  S
O315        C325   1.267       .  A
O315       Al317   1.890       .  S
O316        C329   1.261       .  A
O316       Al326   1.916       .  S
Al317       O330   1.911       .  S
Al317       O327   1.916       .  S
Al317       O322   1.781       .  S
O318        C325   1.269       .  A
O318       Al326   1.933       .  S
O319        C328   1.263       .  A
O319       Al326   1.933       .  S
O320       Al326   1.886       .  S
O321        C328   1.252       .  A
O322       Al326   1.787       .  S
O323        C324   1.268       .  A
C324        C501   1.467       .  S
C325        C405   1.497       .  S
C328        C677   1.473       .  S
C329        O330   1.256       .  A
C329        C354   1.496       .  S
O331        C346   1.254       .  A
O331       Al339   1.896       .  S
C332        O342   1.268       .  A
C332        O333   1.254       .  A
C332        C357   1.484       .  S
O333       Al335   1.872       .  S
O334        C336   1.276       .  A
O334       Al335   1.959       .  S
Al335       O343   1.943       .  S
Al335       O345   1.904       .  S
Al335       O344   1.789       .  S
C336        O349   1.261       .  A
C336        C485   1.487       .  S
O337        C347   1.252       .  A
O337       Al339   1.903       .  S
O338        C351   1.277       .  A
O338       Al348   1.959       .  S
Al339       O352   1.882       .  S
Al339       O349   1.876       .  S
Al339       O344   1.780       .  S
O340        C347   1.256       .  A
O340       Al348   1.900       .  S
O341        C350   1.255       .  A
O341       Al348   1.877       .  S
O342       Al348   1.938       .  S
O343        C350   1.264       .  A
O344       Al348   1.778       .  S
O345        C346   1.257       .  A
C346       C1493   1.471       .  S
C347        C389   1.496       .  S
C350        C853   1.486       .  S
C351        O352   1.262       .  A
C351        C421   1.490       .  S
C353        C354   1.406       .  A
C353        C358   1.411       .  A
C353        H360   1.082       .  S
C354        C355   1.427       .  A
C355        C356   1.410       .  A
C355        C362   1.522       .  S
C356        C357   1.400       .  A
C356        H361   1.083       .  S
C357        C358   1.418       .  A
C358        C359   1.518       .  S
C359        F363   1.385       .  S
C359        F364   1.383       .  S
C359        F365   1.382       .  S
C362        F366   1.382       .  S
C362        F367   1.383       .  S
C362        F368   1.385       .  S
C369        C370   1.404       .  A
C369        C374   1.403       .  A
C369        H376   1.083       .  S
C370        C371   1.421       .  A
C371        C372   1.407       .  A
C371        C378   1.517       .  S
C372        C373   1.399       .  A
C372        H377   1.082       .  S
C373       C1466   1.475   1_554  S
C373        C374   1.415       .  A
C374       C1495   1.517       .  S
C375       C1494   1.518       .  S
C375        F379   1.384       .  S
C375        F380   1.383       .  S
C375        F381   1.381       .  S
C378        F382   1.379       .  S
C378        F383   1.380       .  S
C378        F384   1.385       .  S
C385        C386   1.397       .  A
C385        C390   1.407       .  A
C385        H392   1.083       .  S
C386        C387   1.412       .  A
C387        C388   1.407       .  A
C387        C394   1.518       .  S
C388        C389   1.410       .  A
C388        H393   1.082       .  S
C389        C390   1.430       .  A
C390        C391   1.523       .  S
C391        F395   1.385       .  S
C391        F396   1.383       .  S
C391        F397   1.384       .  S
C394        F398   1.383       .  S
C394        F399   1.382       .  S
C394        F400   1.385       .  S
C401        C402   1.399       .  A
C401        C406   1.407       .  A
C401        H408   1.084       .  S
C402        C403   1.413       .  A
C403        C404   1.406       .  A
C403        C410   1.518       .  S
C404        C405   1.411       .  A
C404        H409   1.082       .  S
C405        C406   1.428       .  A
C406        C407   1.522       .  S
C407        F411   1.382       .  S
C407        F412   1.381       .  S
C407        F413   1.385       .  S
C410        F414   1.382       .  S
C410        F415   1.382       .  S
C410        F416   1.385       .  S
C417        C418   1.400       .  A
C417        C422   1.405       .  A
C417        H424   1.085       .  S
C418        C419   1.411       .  A
C419       C1540   1.404   1_554  A
C419        C426   1.514   1_454  S
C420        C421   1.406       .  A
C420       C1539   1.406       .  A
C420        H425   1.084       .  S
C421       C1542   1.426       .  A
C422       C1541   1.425   1_554  A
C422        C423   1.521       .  S
C423        F427   1.382       .  S
C423       F1548   1.380       .  S
C423       F1549   1.385       .  S
C426        F430   1.383   1_655  S
C426        F431   1.383   1_556  S
C426       F1552   1.384       .  S
F428       C1543   1.379       .  S
F429       C1543   1.385       .  S
F432       C1546   1.384   1_655  S
C433        C434   1.404       .  A
C433        C438   1.414       .  A
C433        H440   1.080       .  S
C434        C435   1.414   1_655  A
C435        C436   1.394       .  A
C435        C442   1.517       .  S
C436        C437   1.403       .  A
C436        H441   1.083       .  S
C437        C438   1.420   1_455  A
C438        C439   1.517       .  S
C439        F443   1.385       .  S
C439        F444   1.383       .  S
C439        F445   1.383       .  S
C442        F446   1.385       .  S
C442        F447   1.377       .  S
C442        F448   1.381       .  S
C449        C450   1.407       .  A
C449        C454   1.412       .  A
C449        H456   1.083       .  S
C450        C451   1.415   1_655  A
C451       C1572   1.402       .  A
C451        C458   1.518       .  S
C452        C453   1.404   1_455  A
C452       C1571   1.401   1_554  A
C452        H457   1.084       .  S
C453       C1574   1.413   1_554  A
C454       C1573   1.416       .  A
C454       C1575   1.517       .  S
C455       C1574   1.516   1_554  S
C455        F460   1.383       .  S
C455        F461   1.382       .  S
C455       F1579   1.384   1_554  S
C458        F462   1.382       .  S
C458        F463   1.383       .  S
C458        F464   1.385       .  S
F459       C1575   1.385       .  S
C465        C466   1.403       .  A
C465        C470   1.411       .  A
C465        H472   1.083       .  S
C466        C467   1.412       .  A
C467        C468   1.405       .  A
C467        C474   1.518       .  S
C468        C469   1.409       .  A
C468        H473   1.082       .  S
C469        C470   1.423       .  A
C470        C471   1.518       .  S
C471        F475   1.385       .  S
C471        F476   1.383       .  S
C471        F477   1.383       .  S
C474        F478   1.383       .  S
C474        F479   1.378       .  S
C474        F480   1.384       .  S
C481        C482   1.406       .  A
C481        C486   1.407       .  A
C481        H488   1.083       .  S
C482        C483   1.425       .  A
C483        C484   1.409       .  A
C483        C490   1.521       .  S
C484        C485   1.401       .  A
C484        H489   1.080       .  S
C485        C486   1.420       .  A
C486        C487   1.521       .  S
C487        F491   1.385       .  S
C487        F492   1.381       .  S
C487        F493   1.384       .  S
C490        F494   1.383       .  S
C490        F495   1.383       .  S
C490        F496   1.385       .  S
C497        C498   1.404       .  A
C497        C502   1.402       .  A
C497        H504   1.085       .  S
C498        C499   1.418       .  A
C499        C500   1.399       .  A
C499        C506   1.515       .  S
C500        C501   1.400       .  A
C500        H505   1.086       .  S
C501        C502   1.414       .  A
C502        C503   1.517       .  S
C503        F507   1.383       .  S
C503        F508   1.383       .  S
C503        F509   1.383       .  S
C506        F510   1.375       .  S
C506        F511   1.381       .  S
C506        F512   1.383       .  S
C513        C514   1.409       .  A
C513        C518   1.401       .  A
C513        H520   1.082       .  S
C514        C515   1.430       .  A
C515        C516   1.410       .  A
C515        C522   1.521       .  S
C516        C517   1.399       .  A
C516        H521   1.082       .  S
C517        C518   1.412       .  A
C518        C519   1.518       .  S
C519        F523   1.385       .  S
C519        F524   1.381       .  S
C519        F525   1.382       .  S
C522        F526   1.379       .  S
C522        F527   1.382       .  S
C522        F528   1.385       .  S
C529        C530   1.396       .  A
C529       C1654   1.402       .  A
C529        H536   1.083       .  S
C530        C531   1.411       .  A
C531        C532   1.411       .  A
C531        C538   1.515       .  S
C532       C1653   1.408       .  A
C532       H1657   1.083       .  S
C533        C534   1.426   1_554  A
C533       C1652   1.412   1_554  A
C534       C1649   1.402       .  A
C534        C535   1.523       .  S
C535        F539   1.384       .  S
C535        F540   1.383       .  S
C535        F541   1.383   1_556  S
H537       C1652   1.083   1_554  S
C538        F542   1.384       .  S
C538        F543   1.383       .  S
C538        F544   1.384       .  S
C545        C546   1.409       .  A
C545        C550   1.409       .  A
C545        H552   1.082       .  S
C546        C547   1.426       .  A
C547        C548   1.406       .  A
C547        C554   1.522       .  S
C548        C549   1.403       .  A
C548        H553   1.083       .  S
C549        C550   1.418       .  A
C550        C551   1.519       .  S
C551        F555   1.385       .  S
C551        F556   1.383       .  S
C551        F557   1.381       .  S
C554        F558   1.383       .  S
C554        F559   1.383       .  S
C554        F560   1.385       .  S
C561        C562   1.406       .  A
C561        C566   1.414       .  A
C561        H568   1.083       .  S
C562        C563   1.425       .  A
C563        C564   1.407       .  A
C563        C570   1.522       .  S
C564        C565   1.401       .  A
C564        H569   1.078       .  S
C565        C566   1.425       .  A
C566        C567   1.521       .  S
C567        F571   1.385       .  S
C567        F572   1.383       .  S
C567        F573   1.383       .  S
C570        F574   1.381       .  S
C570        F575   1.384       .  S
C570        F576   1.385       .  S
C577        C578   1.400       .  A
C577       C1702   1.410   1_554  A
C577        H584   1.083       .  S
C578        C579   1.413       .  A
C579        C580   1.404       .  A
C579        C586   1.513       .  S
C580       C1701   1.403   1_554  A
C580        H585   1.083       .  S
C581        C582   1.421       .  A
C581       C1700   1.403       .  A
C582       C1697   1.409       .  A
C582        C583   1.515       .  S
C583        F587   1.385       .  S
C583        F588   1.382       .  S
C583        F589   1.381       .  S
C586        F590   1.384       .  S
C586        F591   1.379       .  S
C586        F592   1.385       .  S
C593        C594   1.401       .  A
C593        C598   1.409       .  A
C593        H600   1.084       .  S
C594        C595   1.409       .  A
C595        C596   1.407       .  A
C595        C602   1.516       .  S
C596        C597   1.412       .  A
C596        H601   1.080       .  S
C597        C598   1.428       .  A
C598        C599   1.522       .  S
C599        F603   1.385       .  S
C599        F604   1.383   1_455  S
C599        F605   1.383       .  S
C602        F606   1.382       .  S
C602        F607   1.382       .  S
C602        F608   1.384       .  S
C609        C610   1.404       .  A
C609        C614   1.401       .  A
C609        H616   1.086       .  S
C610        C611   1.420       .  A
C611        C612   1.403       .  A
C611        C618   1.517       .  S
C612        C613   1.399       .  A
C612        H617   1.086       .  S
C613        C614   1.414       .  A
C614        C615   1.517       .  S
C615        F619   1.384       .  S
C615        F620   1.383       .  S
C615        F621   1.383       .  S
C618        F622   1.380   1_455  S
C618        F623   1.382       .  S
C618        F624   1.383   1_455  S
C625        C626   1.405   1_545  A
C625        C630   1.416       .  A
C625        H632   1.085       .  S
C626        C627   1.418       .  A
C627        C628   1.395       .  A
C627        C634   1.516       .  S
C628        C629   1.400       .  A
C628       H1753   1.085       .  S
C629       C1334   1.485   1_554  S
C629        C630   1.422   1_565  A
C630        C631   1.517       .  S
C631        F635   1.385       .  S
C631        F636   1.382   1_554  S
C631        F637   1.383   1_554  S
H633       C1748   1.082       .  S
C634        F638   1.382       .  S
C634        F639   1.379       .  S
C634        F640   1.385       .  S
C641        C642   1.411   1_545  A
C641        C646   1.411       .  A
C641        H648   1.082       .  S
C642        C643   1.432       .  A
C643        C644   1.404       .  A
C643        C650   1.525       .  S
C644        C645   1.395       .  A
C644        H649   1.084       .  S
C645        C646   1.409   1_565  A
C646        C647   1.515       .  S
C647        F651   1.384       .  S
C647        F652   1.384       .  S
C647        F653   1.382       .  S
C650        F654   1.382       .  S
C650        F655   1.383       .  S
C650        F656   1.386       .  S
C657        C658   1.411       .  A
C657        C662   1.405       .  A
C657        H664   1.081       .  S
C658        C659   1.421       .  A
C659        C660   1.408       .  A
C659        C666   1.521       .  S
C660        C661   1.410       .  A
C660        H665   1.080       .  S
C661        C662   1.421       .  A
C662        C663   1.524       .  S
C663        F667   1.385       .  S
C663        F668   1.382       .  S
C663        F669   1.383       .  S
C666        F670   1.383       .  S
C666        F671   1.383       .  S
C666        F672   1.384       .  S
C673        C674   1.404       .  A
C673        C678   1.412       .  A
C673        H680   1.083       .  S
C674        C675   1.419       .  A
C675        C676   1.396       .  A
C675        C682   1.516       .  S
C676        C677   1.399       .  A
C676        H681   1.085       .  S
C677        C678   1.415       .  A
C678        C679   1.512       .  S
C679        F683   1.384       .  S
C679        F684   1.383       .  S
C679        F685   1.383       .  S
C682        F686   1.377       .  S
C682        F687   1.384       .  S
C682        F688   1.383       .  S
C689        C690   1.407       .  A
C689        C694   1.415       .  A
C689        H696   1.083       .  S
C690        C691   1.418       .  A
C691        C692   1.398       .  A
C691        C698   1.520       .  S
C692        C693   1.400       .  A
C692        H697   1.082       .  S
C693        C694   1.416       .  A
C694        C695   1.515       .  S
C695        F699   1.385       .  S
C695        F700   1.383       .  S
C695        F701   1.383       .  S
C698        F702   1.383       .  S
C698        F703   1.379       .  S
C698        F704   1.384       .  S
C705        C706   1.406       .  A
C705        C710   1.407       .  A
C705        H712   1.084       .  S
C706       C1273   1.497   1_554  S
C706        C707   1.421       .  A
C707        C708   1.416       .  A
C707       C1834   1.518       .  S
C708        C709   1.408       .  A
C708        H713   1.084       .  S
C709        C710   1.418       .  A
C710        C711   1.517       .  S
C711        F715   1.385       .  S
C711        F716   1.382       .  S
C711        F717   1.382       .  S
C714       C1827   1.519       .  S
C714        F718   1.382       .  S
C714        F719   1.383       .  S
C714       F1840   1.385       .  S
F720       C1834   1.385       .  S
C721        C722   1.407       .  A
C721        C726   1.415       .  A
C721        H728   1.083       .  S
C722        C723   1.419       .  A
C723        C724   1.402       .  A
C723        C730   1.510       .  S
C724        C725   1.401       .  A
C724        H729   1.083       .  S
C725        C726   1.419       .  A
C726        C727   1.514       .  S
C727        F731   1.385       .  S
C727        F732   1.383       .  S
C727        F733   1.377       .  S
C730        F734   1.380       .  S
C730        F735   1.379       .  S
C730        F736   1.385       .  S
C737        C738   1.403       .  A
C737        C742   1.409       .  A
C737        H744   1.084       .  S
C738        C739   1.418       .  A
C739        C740   1.413       .  A
C739        C746   1.515       .  S
C740        C741   1.403       .  A
C740        H745   1.083       .  S
C741        C742   1.415       .  A
C742        C743   1.513       .  S
C743        F747   1.385       .  S
C743        F748   1.384       .  S
C743        F749   1.382       .  S
C746        F750   1.383       .  S
C746        F751   1.382       .  S
C746        F752   1.385       .  S
C753        C754   1.406       .  A
C753        C758   1.409       .  A
C753        H760   1.081       .  S
C754        C755   1.429       .  A
C755        C756   1.411       .  A
C755        C762   1.522       .  S
C756        C757   1.400       .  A
C756        H761   1.074       .  S
C757        C758   1.422       .  A
C758        C759   1.520       .  S
C759        F763   1.385       .  S
C759        F764   1.377       .  S
C759        F765   1.379       .  S
C762        F766   1.383       .  S
C762        F767   1.382       .  S
C762        F768   1.385       .  S
C769        C770   1.396       .  A
C769        C774   1.403       .  A
C769        H776   1.085       .  S
C770        C771   1.416       .  A
C771        C772   1.413       .  A
C771        C778   1.511       .  S
C772        C773   1.403       .  A
C772        H777   1.083       .  S
C773        C774   1.423       .  A
C774        C775   1.514       .  S
C775        F779   1.383       .  S
C775        F780   1.375       .  S
C775        F781   1.383       .  S
C778        F782   1.383       .  S
C778        F783   1.383       .  S
C778        F784   1.384       .  S
C785        C786   1.413       .  A
C785        C790   1.402       .  A
C785        H792   1.080       .  S
C786        C787   1.426       .  A
C787        C788   1.409       .  A
C787        C794   1.521       .  S
C788        C789   1.401       .  A
C788        H793   1.083       .  S
C789        C790   1.408       .  A
C790        C791   1.518       .  S
C791        F795   1.384       .  S
C791        F796   1.382       .  S
C791        F797   1.382       .  S
C794        F798   1.384       .  S
C794        F799   1.383       .  S
C794        F800   1.385       .  S
C801        C802   1.409       .  A
C801        C806   1.409       .  A
C801        H808   1.083       .  S
C802        C803   1.424   1_554  A
C803       C1924   1.398       .  A
C803       C1930   1.521       .  S
C804        C805   1.399       .  A
C804       C1923   1.400       .  A
C804        H809   1.082       .  S
C805       C1926   1.414       .  A
C806       C1925   1.411   1_554  A
C806        C807   1.516       .  S
C807        F811   1.384       .  S
C807        F812   1.383       .  S
C807        F813   1.383       .  S
C810       C1923   1.518       .  S
C810        F816   1.384   1_545  S
C810       F1934   1.380   1_545  S
C810       F1935   1.383       .  S
F814       C1930   1.376   1_564  S
F815       C1930   1.383       .  S
C817        C822   1.396       .  A
C817       C1938   1.406   1_545  A
C817        H824   1.084       .  S
C818        C819   1.424   1_554  A
C818       C1937   1.407   1_564  A
C819       C1940   1.415       .  A
C819        C826   1.517   1_556  S
C820        C821   1.404       .  A
C820       C1939   1.417       .  A
C820        H825   1.085       .  S
C821        C822   1.412   1_565  A
C822        C823   1.515       .  S
C823        F827   1.385       .  S
C823        F828   1.377       .  S
C823        F829   1.381       .  S
C826        F830   1.379       .  S
C826        F831   1.383       .  S
C826        F832   1.385   1_554  S
C833        C834   1.401   1_545  A
C833        C838   1.409       .  A
C833        H840   1.084       .  S
C834        C835   1.410       .  A
C835        C836   1.410       .  A
C835        C842   1.518       .  S
C836        C837   1.413       .  A
C836        H841   1.083       .  S
C837        C838   1.423   1_565  A
C838        C839   1.517       .  S
C839        F843   1.385       .  S
C839        F844   1.383       .  S
C839        F845   1.380       .  S
C842        F846   1.383       .  S
C842        F847   1.383       .  S
C842        F848   1.384       .  S
C849        C850   1.399       .  A
C849        C854   1.404       .  A
C849        H856   1.084       .  S
C850        C851   1.416       .  A
C851        C852   1.415       .  A
C851        C858   1.515       .  S
C852        C853   1.405       .  A
C852        H857   1.083       .  S
C853        C854   1.417       .  A
C854        C855   1.512       .  S
C855        F859   1.385       .  S
C855        F860   1.380       .  S
C855        F861   1.382       .  S
C858        F862   1.382       .  S
C858        F863   1.383       .  S
C858        F864   1.384       .  S
C865        C866   1.396       .  A
C865        C870   1.407       .  A
C865        H872   1.078       .  S
C866        C867   1.411       .  A
C867        C868   1.406       .  A
C867        C874   1.517       .  S
C868        C869   1.411       .  A
C868        H873   1.082       .  S
C869        C870   1.429       .  A
C870        C871   1.523       .  S
C871        F875   1.383       .  S
C871        F876   1.385       .  S
C871        F877   1.382       .  S
C874        F878   1.380       .  S
C874        F879   1.382       .  S
C874        F880   1.385       .  S
C881        C882   1.402       .  A
C881        C886   1.404       .  A
C881        H888   1.084       .  S
C882        C883   1.415       .  A
C883        C884   1.413       .  A
C883        C890   1.515       .  S
C884        C885   1.405       .  A
C884        H889   1.083       .  S
C885        C886   1.420       .  A
C886        C887   1.519       .  S
C887        F891   1.383       .  S
C887        F892   1.384       .  S
C887        F893   1.378       .  S
C890        F894   1.382       .  S
C890        F895   1.383       .  S
C890        F896   1.384       .  S
C897        C898   1.409       .  A
C897        C902   1.406       .  A
C897        H904   1.082       .  S
C898        C899   1.424       .  A
C899        C900   1.412       .  A
C899        C906   1.520       .  S
C900        C901   1.405       .  A
C900        H905   1.080       .  S
C901        C902   1.416       .  A
C902        C903   1.517       .  S
C903        F907   1.385       .  S
C903        F908   1.379       .  S
C903        F909   1.382       .  S
C906        F910   1.383       .  S
C906        F911   1.383       .  S
C906        F912   1.385       .  S
C913        C914   1.404       .  A
C913        C918   1.400       .  A
C913        H920   1.082       .  S
C914        C915   1.421       .  A
C915        C916   1.411       .  A
C915        C922   1.517       .  S
C916        C917   1.402       .  A
C916        H921   1.082       .  S
C917        C918   1.414       .  A
C918        C919   1.515       .  S
C919        F923   1.383       .  S
C919        F924   1.384   1_545  S
C919        F925   1.379       .  S
C922        F926   1.383       .  S
C922        F927   1.381       .  S
C922        F928   1.385       .  S
C929        C930   1.393       .  A
C929        C934   1.403       .  A
C929        H936   1.084       .  S
C930        C931   1.411   1_655  A
C931        C932   1.415       .  A
C931        C938   1.515       .  S
C932        C933   1.412   1_455  A
C932        H937   1.082       .  S
C933       C1207   1.502   1_554  S
C933        C934   1.436       .  A
C934       C2055   1.526       .  S
C935       C2054   1.526       .  S
C935        F940   1.380       .  S
C935        F941   1.380       .  S
C935       F2059   1.386       .  S
C938        F942   1.384       .  S
C938        F943   1.383       .  S
C938        F944   1.384       .  S
F939       C2055   1.386       .  S
C945        C946   1.399       .  A
C945        C950   1.403       .  A
C945        H952   1.083       .  S
C946        C947   1.419   1_655  A
C947        C948   1.414       .  A
C947        C954   1.514       .  S
C948        C949   1.404   1_455  A
C948        H953   1.083       .  S
C949        C950   1.417       .  A
C950        C951   1.514       .  S
C951        F955   1.384       .  S
C951        F956   1.379       .  S
C951        F957   1.381       .  S
C954        F958   1.383       .  S
C954        F959   1.378       .  S
C954        F960   1.385       .  S
C961        C962   1.403       .  A
C961        C966   1.412       .  A
C961        H968   1.083       .  S
C962        C963   1.416       .  A
C963        C964   1.405       .  A
C963        C970   1.512       .  S
C964        C965   1.400       .  A
C964        H969   1.084       .  S
C965        C966   1.416       .  A
C966        C967   1.514       .  S
C967        F971   1.385       .  S
C967        F972   1.383       .  S
C967        F973   1.381       .  S
C970        F974   1.383       .  S
C970        F975   1.381       .  S
C970        F976   1.385       .  S
C977        C978   1.415       .  A
C977        C982   1.408       .  A
C977        H984   1.080       .  S
C978        C979   1.428       .  A
C979        C980   1.409       .  A
C979        C986   1.522       .  S
C980        C981   1.401       .  A
C980        H985   1.083       .  S
C981        C982   1.410       .  A
C982        C983   1.518       .  S
C983        F987   1.385       .  S
C983        F988   1.383       .  S
C983        F989   1.382       .  S
C986        F990   1.381       .  S
C986        F991   1.383       .  S
C986        F992   1.385       .  S
C993        C994   1.403       .  A
C993        C998   1.414       .  A
C993       H1000   1.083       .  S
C994        C995   1.410       .  A
C995        C996   1.410       .  A
C995       C1002   1.517       .  S
C996        C997   1.414       .  A
C996       H1001   1.082       .  S
C997        C998   1.426       .  A
C998        C999   1.519       .  S
C999       F1003   1.385       .  S
C999       F1004   1.383       .  S
C999       F1005   1.383       .  S
C1002      F1006   1.382       .  S
C1002      F1007   1.383       .  S
C1002      F1008   1.385       .  S
C1009      C1010   1.399       .  A
C1009      C2134   1.399       .  A
C1009      H1016   1.085       .  S
C1010      C2131   1.412       .  A
C1011      C1012   1.401       .  A
C1011      C2130   1.412   1_554  A
C1011      C1018   1.516       .  S
C1012      C1013   1.404       .  A
C1012      H1017   1.085       .  S
C1013      C1014   1.419       .  A
C1014      C2129   1.400   1_554  A
C1014      C1015   1.519   1_554  S
C1015      F1020   1.378   1_556  S
C1015      F1021   1.383       .  S
C1015      F2139   1.384       .  S
C1018      F1023   1.382       .  S
C1018      F1024   1.383       .  S
C1018      F2142   1.384       .  S
F1019      C2135   1.385       .  S
F1022      C2138   1.383       .  S
C1025      C1026   1.400       .  A
C1025      C1030   1.405       .  A
C1025      H1032   1.085       .  S
C1026      C1027   1.417       .  A
C1027      C1028   1.415       .  A
C1027      C1034   1.512       .  S
C1028      C1029   1.403       .  A
C1028      H1033   1.083       .  S
C1029      C1030   1.416       .  A
C1030      C1031   1.509       .  S
C1031      F1035   1.384       .  S
C1031      F1036   1.382       .  S
C1031      F1037   1.383       .  S
C1034      F1038   1.382       .  S
C1034      F1039   1.383       .  S
C1034      F1040   1.384       .  S
C1041      C1042   1.404       .  A
C1041      C1046   1.412       .  A
C1041      H1048   1.083       .  S
C1042      C1043   1.422       .  A
C1043      C1044   1.408       .  A
C1043      C1050   1.518       .  S
C1044      C1045   1.404       .  A
C1044      H1049   1.083       .  S
C1045      C1046   1.425       .  A
C1046      C1047   1.520       .  S
C1047      F1051   1.385       .  S
C1047      F1052   1.383       .  S
C1047      F1053   1.383       .  S
C1050      F1054   1.383       .  S
C1050      F1055   1.381       .  S
C1050      F1056   1.385       .  S
C1057      C1058   1.410       .  A
C1057      C1062   1.409       .  A
C1057      H1064   1.083       .  S
C1058      C1059   1.427       .  A
C1059      C1060   1.404       .  A
C1059      C1066   1.522       .  S
C1060      C1061   1.399       .  A
C1060      H1065   1.084       .  S
C1061      C1062   1.413       .  A
C1062      C1063   1.518       .  S
C1063      F1067   1.385       .  S
C1063      F1068   1.382       .  S
C1063      F1069   1.383       .  S
C1066      F1070   1.382       .  S
C1066      F1071   1.377       .  S
C1066      F1072   1.385       .  S
C1073      C1074   1.404       .  A
C1073      C1078   1.408       .  A
C1073      H1080   1.081       .  S
C1074      C1075   1.423       .  A
C1075      C1076   1.406       .  A
C1075      C1082   1.522       .  S
C1076      C1077   1.403       .  A
C1076      H1081   1.083       .  S
C1077      C1078   1.422       .  A
C1078      C1079   1.521       .  S
C1079      F1083   1.385       .  S
C1079      F1084   1.379       .  S
C1079      F1085   1.381       .  S
C1082      F1086   1.382       .  S
C1082      F1087   1.384       .  S
C1082      F1088   1.385       .  S
C1089      C1090   1.404       .  A
C1089      C2214   1.409       .  A
C1089      H1096   1.084       .  S
C1090      C1091   1.423       .  A
C1091      C1092   1.410       .  A
C1091      C1098   1.518       .  S
C1092      C2213   1.402       .  A
C1092      H1097   1.083       .  S
C1093      C1094   1.422       .  A
C1093      C2212   1.404   1_554  A
C1094      C2209   1.410   1_554  A
C1094      C1095   1.519       .  S
C1095      F1099   1.385       .  S
C1095      F1100   1.380       .  S
C1095      F1101   1.382       .  S
C1098      F1102   1.380       .  S
C1098      F1103   1.382       .  S
C1098      F1104   1.385       .  S
C1105      C1106   1.404       .  A
C1105      C1110   1.411       .  A
C1105      H1112   1.083       .  S
C1106      C1107   1.423       .  A
C1107      C1108   1.405       .  A
C1107      C1114   1.519       .  S
C1108      C1109   1.400       .  A
C1108      H1113   1.083       .  S
C1109      C1110   1.418       .  A
C1110      C1111   1.516       .  S
C1111      F1115   1.385       .  S
C1111      F1116   1.382       .  S
C1111      F1117   1.384       .  S
C1114      F1118   1.382       .  S
C1114      F1119   1.381       .  S
C1114      F1120   1.385       .  S
O1121      C1136   1.256       .  A
O1121     Al1129   1.908       .  S
C1122      O1132   1.265       .  A
C1122      O1123   1.255       .  A
C1122      C2210   1.491       .  S
O1123     Al1125   1.886       .  S
O1124      C1126   1.273       .  A
O1124     Al1125   1.933       .  S
Al1125     O1133   1.942       .  S
Al1125     O1135   1.919       .  S
Al1125     O1134   1.788       .  S
C1126      O1139   1.261       .  A
C1126      C2194   1.489       .  S
O1127      C1137   1.260       .  A
O1127     Al1129   1.922       .  S
O1128      C1141   1.271       .  A
O1128     Al1138   1.938       .  S
Al1129     O1142   1.881       .  S
Al1129     O1139   1.880       .  S
Al1129     O1134   1.782       .  S
O1130      C1137   1.254       .  A
O1130     Al1138   1.898       .  S
O1131      C1140   1.254       .  A
O1131     Al1138   1.868       .  S
O1132     Al1138   1.926       .  S
O1133      C1140   1.265       .  A
O1134     Al1138   1.783       .  S
O1135      C1136   1.261       .  A
C1136      C2226   1.491       .  S
C1137      C2165   1.490       .  S
C1140      C2146   1.480       .  S
C1141      O1142   1.263       .  A
C1141      C2181   1.470       .  S
O1143      C1158   1.264       .  A
O1143     Al1151   1.879       .  S
C1144      O1154   1.257       .  A
C1144      O1145   1.266       .  A
C1144      C2229   1.482       .  S
O1145     Al1147   1.928       .  S
O1146      C1148   1.253       .  A
O1146     Al1147   1.893       .  S
Al1147     O1155   1.870       .  S
Al1147     O1157   1.930       .  S
Al1147     O1156   1.785       .  S
C1148      O1161   1.257       .  A
C1148      C2114   1.481       .  S
O1149      C1159   1.265       .  A
O1149     Al1151   1.889       .  S
O1150      C1163   1.259       .  A
O1150     Al1160   1.908       .  S
Al1151     O1164   1.923       .  S
Al1151     O1161   1.921       .  S
Al1151     O1156   1.787       .  S
O1152      C1159   1.271       .  A
O1152     Al1160   1.945       .  S
O1153      C1162   1.261       .  A
O1153     Al1160   1.935       .  S
O1154     Al1160   1.880       .  S
O1155      C1162   1.252       .  A
O1156     Al1160   1.791       .  S
O1157      C1158   1.271       .  A
C1158      C2133   1.476       .  S
C1159      C2098   1.502       .  S
C1162      C2082   1.480       .  S
C1163      O1164   1.259       .  A
C1163      C2213   1.488       .  S
O1165      C1180   1.259       .  A
O1165     Al1173   1.888       .  S
C1166      O1176   1.262       .  A
C1166      O1167   1.264   1_655  A
C1166      C2050   1.473       .  S
O1167     Al1169   1.929   1_455  S
O1168      C1170   1.263       .  A
O1168     Al1169   1.917       .  S
Al1169     O1177   1.918   1_655  S
Al1169     O1179   1.920       .  S
Al1169     O1178   1.792       .  S
C1170      O1183   1.262       .  A
C1170      C2117   1.501       .  S
O1171      C1181   1.256       .  A
O1171     Al1173   1.903       .  S
O1172      C1185   1.266       .  A
O1172     Al1182   1.914       .  S
Al1173     O1186   1.908       .  S
Al1173     O1183   1.909       .  S
Al1173     O1178   1.780       .  S
O1174      C1181   1.257       .  A
O1174     Al1182   1.899       .  S
O1175      C1184   1.259       .  A
O1175     Al1182   1.902   1_455  S
O1176     Al1182   1.894       .  S
O1177      C1184   1.262       .  A
O1178     Al1182   1.789       .  S
O1179      C1180   1.260       .  A
C1180      C2066   1.484       .  S
C1181      C2018   1.492       .  S
C1184      C2005   1.474       .  S
C1185      O1186   1.265       .  A
C1185      C2037   1.471       .  S
O1187      C1202   1.261       .  A
O1187     Al1195   1.876       .  S
C1188      O1198   1.262       .  A
C1188      O1189   1.264       .  A
C1188      C2069   1.477       .  S
O1189     Al1191   1.918       .  S
O1190      C1192   1.250       .  A
O1190     Al1191   1.880       .  S
Al1191     O1199   1.866   1_655  S
Al1191     O1201   1.927       .  S
Al1191     O1200   1.787       .  S
C1192      O1205   1.255       .  A
C1192      C2197   1.477       .  S
O1193      C1203   1.263       .  A
O1193     Al1195   1.888       .  S
O1194      C1207   1.268       .  A
O1194     Al1204   1.941       .  S
Al1195     O1208   1.895       .  S
Al1195     O1205   1.903       .  S
Al1195     O1200   1.778       .  S
O1196      C1203   1.268       .  A
O1196     Al1204   1.934       .  S
O1197      C1206   1.261       .  A
O1197     Al1204   1.931   1_455  S
O1198     Al1204   1.897       .  S
O1199      C1206   1.252       .  A
O1200     Al1204   1.792       .  S
O1201      C1202   1.267       .  A
C1202      C2130   1.462       .  S
C1203      C1986   1.474       .  S
C1206      C1970   1.473       .  S
C1207      O1208   1.254       .  A
O1209      C1224   1.262       .  A
O1209     Al1217   1.871       .  S
C1210      O1220   1.261       .  A
C1210      O1211   1.271       .  A
C1210      C1957   1.500       .  S
O1211     Al1213   1.946   1_565  S
O1212      C1214   1.252       .  A
O1212     Al1213   1.886       .  S
Al1213     O1221   1.872   1_545  S
Al1213     O1223   1.942       .  S
Al1213     O1222   1.784       .  S
C1214      O1227   1.253       .  A
C1214      C1909   1.480       .  S
O1215      C1225   1.262       .  A
O1215     Al1217   1.878       .  S
O1216      C1229   1.261   1_565  A
O1216     Al1226   1.921       .  S
Al1217     O1230   1.898       .  S
Al1217     O1227   1.905       .  S
Al1217     O1222   1.783       .  S
O1218      C1225   1.271       .  A
O1218     Al1226   1.949   1_545  S
O1219      C1228   1.263       .  A
O1219     Al1226   1.947       .  S
O1220     Al1226   1.893       .  S
O1221      C1228   1.250       .  A
O1222     Al1226   1.797   1_545  S
O1223      C1224   1.273       .  A
C1224      C1922   1.475       .  S
C1225      C2021   1.482       .  S
C1228      C1893   1.488       .  S
C1229      O1230   1.260       .  A
C1229      C1938   1.495   1_545  S
O1231      C1246   1.260   1_545  A
O1231     Al1239   1.911       .  S
C1232      O1242   1.264       .  A
C1232      O1233   1.259       .  A
C1232      C1941   1.478       .  S
O1233     Al1235   1.889       .  S
O1234      C1236   1.272       .  A
O1234     Al1235   1.948   1_545  S
Al1235     O1243   1.934       .  S
Al1235     O1245   1.926       .  S
Al1235     O1244   1.794   1_565  S
C1236      O1249   1.261       .  A
C1236      C1874   1.505       .  S
O1237      C1247   1.255       .  A
O1237     Al1239   1.906       .  S
O1238      C1251   1.266       .  A
O1238     Al1248   1.932       .  S
Al1239     O1252   1.884       .  S
Al1239     O1249   1.892       .  S
Al1239     O1244   1.780       .  S
O1240      C1247   1.256       .  A
O1240     Al1248   1.889       .  S
O1241      C1250   1.254       .  A
O1241     Al1248   1.871   1_565  S
O1242     Al1248   1.923   1_565  S
O1243      C1250   1.263       .  A
O1244     Al1248   1.790       .  S
O1245      C1246   1.262       .  A
C1246      C1954   1.493       .  S
C1247      C1989   1.497       .  S
C1250      C1858   1.475       .  S
C1251      O1252   1.265       .  A
C1251      C2034   1.483       .  S
O1253      C1268   1.259       .  A
O1253     Al1261   1.883       .  S
C1254      O1264   1.260       .  A
C1254      O1255   1.267       .  A
C1254      C1842   1.492       .  S
O1255     Al1257   1.939       .  S
O1256      C1258   1.256       .  A
O1256     Al1257   1.891       .  S
Al1257     O1265   1.865       .  S
Al1257     O1267   1.928       .  S
Al1257     O1266   1.788       .  S
C1258      O1271   1.264       .  A
C1258      C1877   1.490       .  S
O1259      C1269   1.260       .  A
O1259     Al1261   1.882       .  S
O1260      C1273   1.260       .  A
O1260     Al1270   1.918       .  S
Al1261     O1274   1.917       .  S
Al1261     O1271   1.932       .  S
Al1261     O1266   1.780       .  S
O1262      C1269   1.272       .  A
O1262     Al1270   1.946       .  S
O1263      C1272   1.264       .  A
O1263     Al1270   1.940       .  S
O1264     Al1270   1.894       .  S
O1265      C1272   1.253       .  A
O1266     Al1270   1.793       .  S
O1267      C1268   1.266       .  A
C1268      C1925   1.468       .  S
C1269      C2162   1.492       .  S
C1272      C1813   1.477       .  S
C1273      O1274   1.262       .  A
O1275      C1290   1.260       .  A
O1275     Al1283   1.907       .  S
C1276      O1286   1.268       .  A
C1276      O1277   1.261       .  A
C1276      C1829   1.502       .  S
O1277     Al1279   1.900       .  S
O1278      C1280   1.270       .  A
O1278     Al1279   1.942       .  S
Al1279     O1287   1.938       .  S
Al1279     O1289   1.930       .  S
Al1279     O1288   1.795       .  S
C1280      O1293   1.264       .  A
C1280      C1906   1.498       .  S
O1281      C1291   1.256       .  A
O1281     Al1283   1.923       .  S
O1282      C1295   1.275       .  A
O1282     Al1292   1.953       .  S
Al1283     O1296   1.880       .  S
Al1283     O1293   1.881       .  S
Al1283     O1288   1.787       .  S
O1284      C1291   1.251       .  A
O1284     Al1292   1.880       .  S
O1285      C1294   1.252       .  A
O1285     Al1292   1.862       .  S
O1286     Al1292   1.943       .  S
O1287      C1294   1.263       .  A
O1288     Al1292   1.786       .  S
O1289      C1290   1.261       .  A
C1290      C1845   1.496       .  S
C1291      C2101   1.477       .  S
C1294      C1794   1.480       .  S
C1295      O1296   1.259       .  A
C1295      C2178   1.487       .  S
O1297      C1312   1.263       .  A
O1297     Al1305   1.888       .  S
C1298      O1308   1.258       .  A
C1298      O1299   1.263       .  A
C1298      C1746   1.478       .  S
O1299     Al1301   1.919       .  S
O1300      C1302   1.252       .  A
O1300     Al1301   1.871       .  S
Al1301     O1309   1.860   1_565  S
Al1301     O1311   1.909       .  S
Al1301     O1310   1.786       .  S
C1302      O1315   1.257       .  A
C1302      C1714   1.474       .  S
O1303      C1313   1.265       .  A
O1303     Al1305   1.895       .  S
O1304      C1317   1.263       .  A
O1304     Al1314   1.918       .  S
Al1305     O1318   1.902       .  S
Al1305     O1315   1.917       .  S
Al1305     O1310   1.784       .  S
O1306      C1313   1.267       .  A
O1306     Al1314   1.933       .  S
O1307      C1316   1.264       .  A
O1307     Al1314   1.942   1_545  S
O1308     Al1314   1.887       .  S
O1309      C1316   1.251       .  A
O1310     Al1314   1.790       .  S
O1311      C1312   1.263       .  A
C1312      C1733   1.463       .  S
C1313      C1781   1.501       .  S
C1316      C2002   1.477       .  S
C1317      O1318   1.257       .  A
C1317      C1762   1.489       .  S
O1319      C1334   1.265       .  A
O1319     Al1327   1.910       .  S
C1320      O1330   1.267       .  A
C1320      O1321   1.258       .  A
C1320      C1765   1.474       .  S
O1321     Al1323   1.877       .  S
O1322      C1324   1.268       .  A
O1322     Al1323   1.940       .  S
Al1323     O1331   1.935   1_565  S
Al1323     O1333   1.907       .  S
Al1323     O1332   1.795       .  S
C1324      O1337   1.261       .  A
C1324      C1669   1.474       .  S
O1325      C1335   1.262       .  A
O1325     Al1327   1.924       .  S
O1326      C1339   1.267       .  A
O1326     Al1336   1.941       .  S
Al1327     O1340   1.888       .  S
Al1327     O1337   1.889       .  S
Al1327     O1332   1.774       .  S
O1328      C1335   1.256       .  A
O1328     Al1336   1.901       .  S
O1329      C1338   1.255       .  A
O1329     Al1336   1.874   1_545  S
O1330     Al1336   1.930       .  S
O1331      C1338   1.262       .  A
O1332     Al1336   1.778       .  S
O1333      C1334   1.260       .  A
C1335      C1682   1.498       .  S
C1338      C1810   1.475       .  S
C1339      O1340   1.263       .  A
C1339      C1701   1.486       .  S
O1341      C1356   1.260       .  A
O1341     Al1349   1.873       .  S
C1342      O1352   1.256       .  A
C1342      O1343   1.265       .  A
C1342      C1650   1.471       .  S
O1343     Al1345   1.937       .  S
O1344      C1346   1.254       .  A
O1344     Al1345   1.888       .  S
Al1345     O1353   1.866       .  S
Al1345     O1355   1.937       .  S
Al1345     O1354   1.780       .  S
C1346      O1359   1.263       .  A
C1346      C1602   1.487       .  S
O1347      C1357   1.259       .  A
O1347     Al1349   1.883       .  S
O1348      C1361   1.261       .  A
O1348     Al1358   1.909       .  S
Al1349     O1362   1.920       .  S
Al1349     O1359   1.928       .  S
Al1349     O1354   1.779       .  S
O1350      C1357   1.275       .  A
O1350     Al1358   1.962       .  S
O1351      C1360   1.268       .  A
O1351     Al1358   1.961       .  S
O1352     Al1358   1.869       .  S
O1353      C1360   1.253       .  A
O1354     Al1358   1.783       .  S
O1355      C1356   1.269       .  A
C1356      C1618   1.470       .  S
C1357      C1685   1.498       .  S
C1360      C2149   1.486       .  S
C1361      O1362   1.262       .  A
C1361      C1637   1.480       .  S
O1363      C1378   1.256       .  A
O1363     Al1371   1.883       .  S
C1364      O1374   1.266       .  A
C1364      O1365   1.265       .  A
C1364      C1634   1.501       .  S
O1365     Al1367   1.932       .  S
O1366      C1368   1.263       .  A
O1366     Al1367   1.919       .  S
Al1367     O1375   1.940       .  S
Al1367     O1377   1.925       .  S
Al1367     O1376   1.792       .  S
C1368      O1381   1.258       .  A
C1368      C1586   1.487       .  S
O1369      C1379   1.255       .  A
O1369     Al1371   1.901       .  S
O1370      C1383   1.266       .  A
O1370     Al1380   1.920       .  S
Al1371     O1384   1.902       .  S
Al1371     O1381   1.903       .  S
Al1371     O1376   1.786       .  S
O1372      C1379   1.260       .  A
O1372     Al1380   1.907       .  S
O1373      C1382   1.257       .  A
O1373     Al1380   1.902       .  S
O1374     Al1380   1.893       .  S
O1375      C1382   1.265       .  A
O1376     Al1380   1.785       .  S
O1377      C1378   1.263       .  A
C1378      C1653   1.484       .  S
C1379      C1778   1.500       .  S
C1382      C1890   1.486       .  S
C1383      O1384   1.263       .  A
C1383      C1698   1.472       .  S
O1385      C1400   1.260   1_455  A
O1385     Al1393   1.899       .  S
C1386      O1396   1.266       .  A
C1386      O1387   1.256       .  A
C1386      C1554   1.480       .  S
O1387     Al1389   1.875       .  S
O1388      C1390   1.269       .  A
O1388     Al1389   1.944   1_455  S
Al1389     O1397   1.943       .  S
Al1389     O1399   1.914       .  S
Al1389     O1398   1.786   1_655  S
C1390      O1403   1.262       .  A
C1390      C1717   1.496       .  S
O1391      C1401   1.259       .  A
O1391     Al1393   1.919       .  S
O1392      C1405   1.270       .  A
O1392     Al1402   1.948       .  S
Al1393     O1406   1.881       .  S
Al1393     O1403   1.875       .  S
Al1393     O1398   1.776       .  S
O1394      C1401   1.257       .  A
O1394     Al1402   1.893       .  S
O1395      C1404   1.256       .  A
O1395     Al1402   1.872   1_655  S
O1396     Al1402   1.941   1_655  S
O1397      C1404   1.265       .  A
O1398     Al1402   1.782       .  S
O1399      C1400   1.261       .  A
C1400      C1573   1.483       .  S
C1401      C1522   1.475       .  S
C1404      C2085   1.478       .  S
C1405      O1406   1.260       .  A
C1405      C1538   1.477       .  S
O1407      C1422   1.265       .  A
O1407     Al1415   1.888       .  S
C1408      O1418   1.258       .  A
C1408      O1409   1.266       .  A
C1408      C1570   1.477       .  S
O1409     Al1411   1.925   1_655  S
O1410      C1412   1.259       .  A
O1410     Al1411   1.906       .  S
Al1411     O1419   1.876   1_455  S
Al1411     O1421   1.922       .  S
Al1411     O1420   1.782       .  S
C1412      O1425   1.252       .  A
C1412      C1666   1.498       .  S
O1413      C1423   1.262       .  A
O1413     Al1415   1.887       .  S
O1414      C1427   1.260   1_655  A
O1414     Al1424   1.916       .  S
Al1415     O1428   1.894       .  S
Al1415     O1425   1.897       .  S
Al1415     O1420   1.778       .  S
O1416      C1423   1.271       .  A
O1416     Al1424   1.948   1_455  S
O1417      C1426   1.261       .  A
O1417     Al1424   1.932       .  S
O1418     Al1424   1.873       .  S
O1419      C1426   1.253       .  A
O1420     Al1424   1.794   1_455  S
O1421      C1422   1.269       .  A
C1422      C1730   1.472       .  S
C1423      C1506   1.473       .  S
C1426      C1861   1.477       .  S
C1427      O1428   1.259       .  A
C1427      C1557   1.484   1_455  S
O1429      C1444   1.264       .  A
O1429     Al1437   1.885       .  S
C1430      O1440   1.257       .  A
C1430      O1431   1.262       .  A
C1430      C1490   1.481       .  S
O1431     Al1433   1.903       .  S
O1432      C1434   1.257       .  A
O1432     Al1433   1.908       .  S
Al1433     O1441   1.863       .  S
Al1433     O1443   1.922       .  S
Al1433     O1442   1.784       .  S
C1434      O1447   1.260       .  A
C1434      C1589   1.496       .  S
O1435      C1445   1.267       .  A
O1435     Al1437   1.888       .  S
O1436      C1449   1.262       .  A
O1436     Al1446   1.923       .  S
Al1437     O1450   1.908       .  S
Al1437     O1447   1.924       .  S
Al1437     O1442   1.781       .  S
O1438      C1445   1.270       .  A
O1438     Al1446   1.941       .  S
O1439      C1448   1.265       .  A
O1439     Al1446   1.942       .  S
O1440     Al1446   1.888       .  S
O1441      C1448   1.254       .  A
O1442     Al1446   1.791       .  S
O1443      C1444   1.267       .  A
C1444      C1621   1.467       .  S
C1445      C1525   1.499       .  S
C1448      C1797   1.478       .  S
C1449      O1450   1.256       .  A
C1449      C1474   1.495       .  S
O1451      C1466   1.256       .  A
O1451     Al1459   1.908       .  S
C1452      O1462   1.267       .  A
C1452      O1453   1.256       .  A
C1452      C1477   1.485       .  S
O1453     Al1455   1.879       .  S
O1454      C1456   1.275       .  A
O1454     Al1455   1.950       .  S
Al1455     O1463   1.935       .  S
Al1455     O1465   1.906       .  S
Al1455     O1464   1.788       .  S
C1456      O1469   1.261       .  A
C1456      C1605   1.488       .  S
O1457      C1467   1.256       .  A
O1457     Al1459   1.918       .  S
O1458      C1471   1.275       .  A
O1458     Al1468   1.949       .  S
Al1459     O1472   1.879       .  S
Al1459     O1469   1.876       .  S
Al1459     O1464   1.783       .  S
O1460      C1467   1.256       .  A
O1460     Al1468   1.894       .  S
O1461      C1470   1.253       .  A
O1461     Al1468   1.867       .  S
O1462     Al1468   1.936       .  S
O1463      C1470   1.263       .  A
O1464     Al1468   1.779       .  S
O1465      C1466   1.257       .  A
C1467      C1509   1.497       .  S
C1470      C1973   1.476       .  S
C1471      O1472   1.261       .  A
C1471      C1541   1.486       .  S
C1473      C1474   1.406       .  A
C1473      C1478   1.413       .  A
C1473      H1480   1.082       .  S
C1474      C1475   1.427       .  A
C1475      C1476   1.409       .  A
C1475      C1482   1.521       .  S
C1476      C1477   1.399       .  A
C1476      H1481   1.083       .  S
C1477      C1478   1.419       .  A
C1478      C1479   1.518       .  S
C1479      F1483   1.385       .  S
C1479      F1484   1.384       .  S
C1479      F1485   1.382       .  S
C1482      F1486   1.380       .  S
C1482      F1487   1.382       .  S
C1482      F1488   1.385       .  S
C1489      C1490   1.401       .  A
C1489      C1494   1.398       .  A
C1489      H1496   1.090       .  S
C1490      C1491   1.421       .  A
C1491      C1492   1.405       .  A
C1491      C1498   1.515       .  S
C1492      C1493   1.399       .  A
C1492      H1497   1.087       .  S
C1493      C1494   1.416       .  A
C1495      F1499   1.384       .  S
C1495      F1500   1.382   1_554  S
C1495      F1501   1.382   1_554  S
C1498      F1502   1.379       .  S
C1498      F1503   1.379       .  S
C1498      F1504   1.385       .  S
C1505      C1506   1.398       .  A
C1505      C1510   1.410       .  A
C1505      H1512   1.083       .  S
C1506      C1507   1.411       .  A
C1507      C1508   1.407       .  A
C1507      C1514   1.518       .  S
C1508      C1509   1.410       .  A
C1508      H1513   1.082       .  S
C1509      C1510   1.430       .  A
C1510      C1511   1.522       .  S
C1511      F1515   1.385       .  S
C1511      F1516   1.383       .  S
C1511      F1517   1.383       .  S
C1514      F1518   1.383       .  S
C1514      F1519   1.383       .  S
C1514      F1520   1.385       .  S
C1521      C1522   1.399       .  A
C1521      C1526   1.408       .  A
C1521      H1528   1.084       .  S
C1522      C1523   1.411       .  A
C1523      C1524   1.406       .  A
C1523      C1530   1.518       .  S
C1524      C1525   1.412       .  A
C1524      H1529   1.082       .  S
C1525      C1526   1.429       .  A
C1526      C1527   1.522       .  S
C1527      F1531   1.381       .  S
C1527      F1532   1.380       .  S
C1527      F1533   1.385       .  S
C1530      F1534   1.381       .  S
C1530      F1535   1.382       .  S
C1530      F1536   1.385       .  S
C1537      C1538   1.401       .  A
C1537      C1542   1.408       .  A
C1537      H1544   1.085       .  S
C1538      C1539   1.414       .  A
C1539      C1546   1.515       .  S
C1540      C1541   1.407       .  A
C1540      H1545   1.085       .  S
C1542      C1543   1.520       .  S
C1543      F1547   1.383       .  S
C1546      F1550   1.383       .  S
C1546      F1551   1.384   1_455  S
C1553      C1554   1.406       .  A
C1553      C1558   1.417       .  A
C1553      H1560   1.082       .  S
C1554      C1555   1.415   1_655  A
C1555      C1556   1.392       .  A
C1555      C1562   1.516       .  S
C1556      C1557   1.401   1_455  A
C1556      H1561   1.084       .  S
C1557      C1558   1.419       .  A
C1558      C1559   1.516       .  S
C1559      F1563   1.385       .  S
C1559      F1564   1.383       .  S
C1559      F1565   1.383       .  S
C1562      F1566   1.385       .  S
C1562      F1567   1.377       .  S
C1562      F1568   1.381       .  S
C1569      C1570   1.407       .  A
C1569      C1574   1.408       .  A
C1569      H1576   1.083       .  S
C1570      C1571   1.416   1_655  A
C1571      C1578   1.518       .  S
C1572      C1573   1.405   1_455  A
C1572      H1577   1.083       .  S
C1575      F1580   1.383       .  S
C1575      F1581   1.382       .  S
C1578      F1582   1.382       .  S
C1578      F1583   1.383       .  S
C1578      F1584   1.385       .  S
C1585      C1586   1.404       .  A
C1585      C1590   1.412       .  A
C1585      H1592   1.081       .  S
C1586      C1587   1.415       .  A
C1587      C1588   1.409       .  A
C1587      C1594   1.517       .  S
C1588      C1589   1.409       .  A
C1588      H1593   1.083       .  S
C1589      C1590   1.421       .  A
C1590      C1591   1.515       .  S
C1591      F1595   1.385       .  S
C1591      F1596   1.384       .  S
C1591      F1597   1.381       .  S
C1594      F1598   1.383       .  S
C1594      F1599   1.378       .  S
C1594      F1600   1.384       .  S
C1601      C1602   1.403       .  A
C1601      C1606   1.407       .  A
C1601      H1608   1.084       .  S
C1602      C1603   1.424       .  A
C1603      C1604   1.407       .  A
C1603      C1610   1.522       .  S
C1604      C1605   1.402       .  A
C1604      H1609   1.083       .  S
C1605      C1606   1.423       .  A
C1606      C1607   1.522       .  S
C1607      F1611   1.385       .  S
C1607      F1612   1.383       .  S
C1607      F1613   1.384       .  S
C1610      F1614   1.383       .  S
C1610      F1615   1.382       .  S
C1610      F1616   1.385       .  S
C1617      C1618   1.404       .  A
C1617      C1622   1.402       .  A
C1617      H1624   1.085       .  S
C1618      C1619   1.418       .  A
C1619      C1620   1.400       .  A
C1619      C1626   1.516       .  S
C1620      C1621   1.400       .  A
C1620      H1625   1.085       .  S
C1621      C1622   1.414       .  A
C1622      C1623   1.517       .  S
C1623      F1627   1.384       .  S
C1623      F1628   1.383       .  S
C1623      F1629   1.383       .  S
C1626      F1630   1.376       .  S
C1626      F1631   1.380       .  S
C1626      F1632   1.383       .  S
C1633      C1634   1.409       .  A
C1633      C1638   1.402       .  A
C1633      H1640   1.082       .  S
C1634      C1635   1.431       .  A
C1635      C1636   1.413       .  A
C1635      C1642   1.521       .  S
C1636      C1637   1.399       .  A
C1636      H1641   1.083       .  S
C1637      C1638   1.413       .  A
C1638      C1639   1.518       .  S
C1639      F1643   1.385       .  S
C1639      F1644   1.381       .  S
C1639      F1645   1.381       .  S
C1642      F1646   1.379       .  S
C1642      F1647   1.381       .  S
C1642      F1648   1.385       .  S
C1649      C1650   1.396       .  A
C1649      H1656   1.083       .  S
C1650      C1651   1.409       .  A
C1651      C1652   1.413       .  A
C1651      C1658   1.515       .  S
C1653      C1654   1.424       .  A
C1654      C1655   1.521       .  S
C1655      F1659   1.385       .  S
C1655      F1660   1.383       .  S
C1655      F1661   1.381       .  S
C1658      F1662   1.383       .  S
C1658      F1663   1.383       .  S
C1658      F1664   1.384       .  S
C1665      C1666   1.410       .  A
C1665      C1670   1.408       .  A
C1665      H1672   1.079       .  S
C1666      C1667   1.432       .  A
C1667      C1668   1.407       .  A
C1667      C1674   1.524       .  S
C1668      C1669   1.396       .  A
C1668      H1673   1.082       .  S
C1669      C1670   1.412       .  A
C1670      C1671   1.517       .  S
C1671      F1675   1.385       .  S
C1671      F1676   1.382       .  S
C1671      F1677   1.383       .  S
C1674      F1678   1.382       .  S
C1674      F1679   1.383       .  S
C1674      F1680   1.385       .  S
C1681      C1682   1.406       .  A
C1681      C1686   1.411       .  A
C1681      H1688   1.082       .  S
C1682      C1683   1.424       .  A
C1683      C1684   1.410       .  A
C1683      C1690   1.521       .  S
C1684      C1685   1.404       .  A
C1684      H1689   1.076       .  S
C1685      C1686   1.425       .  A
C1686      C1687   1.522       .  S
C1687      F1691   1.385       .  S
C1687      F1692   1.381       .  S
C1687      F1693   1.383       .  S
C1690      F1694   1.381       .  S
C1690      F1695   1.383       .  S
C1690      F1696   1.385       .  S
C1697      C1698   1.401       .  A
C1697      H1704   1.085       .  S
C1698      C1699   1.415       .  A
C1699      C1700   1.403       .  A
C1699      C1706   1.513       .  S
C1700      H1705   1.086       .  S
C1701      C1702   1.421       .  A
C1702      C1703   1.515       .  S
C1703      F1707   1.385       .  S
C1703      F1708   1.383       .  S
C1703      F1709   1.381       .  S
C1706      F1710   1.381       .  S
C1706      F1711   1.383       .  S
C1706      F1712   1.384       .  S
C1713      C1714   1.402       .  A
C1713      C1718   1.407       .  A
C1713      H1720   1.084       .  S
C1714      C1715   1.410       .  A
C1715      C1716   1.404       .  A
C1715      C1722   1.519       .  S
C1716      C1717   1.412       .  A
C1716      H1721   1.081       .  S
C1717      C1718   1.425       .  A
C1718      C1719   1.522       .  S
C1719      F1723   1.385       .  S
C1719      F1724   1.383   1_455  S
C1719      F1725   1.383       .  S
C1722      F1726   1.382       .  S
C1722      F1727   1.382       .  S
C1722      F1728   1.384       .  S
C1729      C1730   1.406       .  A
C1729      C1734   1.401       .  A
C1729      H1736   1.086       .  S
C1730      C1731   1.418       .  A
C1731      C1732   1.399       .  A
C1731      C1738   1.515       .  S
C1732      C1733   1.399       .  A
C1732      H1737   1.086       .  S
C1733      C1734   1.412       .  A
C1734      C1735   1.517       .  S
C1735      F1739   1.384       .  S
C1735      F1740   1.384       .  S
C1735      F1741   1.383       .  S
C1738      F1742   1.378   1_455  S
C1738      F1743   1.382       .  S
C1738      F1744   1.384   1_455  S
C1745      C1746   1.402   1_545  A
C1745      C1750   1.412       .  A
C1745      H1752   1.083       .  S
C1746      C1747   1.415       .  A
C1747      C1748   1.400       .  A
C1747      C1754   1.515       .  S
C1748      C1749   1.404       .  A
C1749      C1750   1.423   1_565  A
C1750      C1751   1.514       .  S
C1751      F1755   1.385       .  S
C1751      F1756   1.382       .  S
C1751      F1757   1.377       .  S
C1754      F1758   1.382       .  S
C1754      F1759   1.381       .  S
C1754      F1760   1.385       .  S
C1761      C1762   1.407   1_545  A
C1761      C1766   1.410       .  A
C1761      H1768   1.084       .  S
C1762      C1763   1.428       .  A
C1763      C1764   1.404       .  A
C1763      C1770   1.522       .  S
C1764      C1765   1.397       .  A
C1764      H1769   1.085       .  S
C1765      C1766   1.414   1_565  A
C1766      C1767   1.517       .  S
C1767      F1771   1.384       .  S
C1767      F1772   1.384       .  S
C1767      F1773   1.382       .  S
C1770      F1774   1.380       .  S
C1770      F1775   1.383       .  S
C1770      F1776   1.385       .  S
C1777      C1778   1.408       .  A
C1777      C1782   1.406       .  A
C1777      H1784   1.082       .  S
C1778      C1779   1.423       .  A
C1779      C1780   1.411       .  A
C1779      C1786   1.522       .  S
C1780      C1781   1.410       .  A
C1780      H1785   1.083       .  S
C1781      C1782   1.425       .  A
C1782      C1783   1.525       .  S
C1783      F1787   1.385       .  S
C1783      F1788   1.381       .  S
C1783      F1789   1.383       .  S
C1786      F1790   1.383       .  S
C1786      F1791   1.383       .  S
C1786      F1792   1.385       .  S
C1793      C1794   1.404       .  A
C1793      C1798   1.414       .  A
C1793      H1800   1.083       .  S
C1794      C1795   1.420       .  A
C1795      C1796   1.399       .  A
C1795      C1802   1.514       .  S
C1796      C1797   1.397       .  A
C1796      H1801   1.085       .  S
C1797      C1798   1.417       .  A
C1798      C1799   1.512       .  S
C1799      F1803   1.385       .  S
C1799      F1804   1.383       .  S
C1799      F1805   1.382       .  S
C1802      F1806   1.376       .  S
C1802      F1807   1.384       .  S
C1802      F1808   1.383       .  S
C1809      C1810   1.404       .  A
C1809      C1814   1.412       .  A
C1809      H1816   1.083       .  S
C1810      C1811   1.414       .  A
C1811      C1812   1.401       .  A
C1811      C1818   1.517       .  S
C1812      C1813   1.403       .  A
C1812      H1817   1.084       .  S
C1813      C1814   1.416       .  A
C1814      C1815   1.515       .  S
C1815      F1819   1.385       .  S
C1815      F1820   1.383       .  S
C1815      F1821   1.383       .  S
C1818      F1822   1.383       .  S
C1818      F1823   1.384       .  S
C1818      F1824   1.384   1_556  S
C1825      C1826   1.405       .  A
C1825      C1830   1.411       .  A
C1825      H1832   1.084       .  S
C1826      C1827   1.422       .  A
C1827      C1828   1.418       .  A
C1828      C1829   1.409       .  A
C1828      H1833   1.084       .  S
C1829      C1830   1.421       .  A
C1830      C1831   1.516       .  S
C1831      F1835   1.385       .  S
C1831      F1836   1.380       .  S
C1831      F1837   1.382       .  S
C1834      F1838   1.383       .  S
C1834      F1839   1.383   1_554  S
C1841      C1842   1.406       .  A
C1841      C1846   1.416       .  A
C1841      H1848   1.083       .  S
C1842      C1843   1.418       .  A
C1843      C1844   1.405       .  A
C1843      C1850   1.513       .  S
C1844      C1845   1.404       .  A
C1844      H1849   1.083       .  S
C1845      C1846   1.420       .  A
C1846      C1847   1.513       .  S
C1847      F1851   1.385       .  S
C1847      F1852   1.383       .  S
C1847      F1853   1.376       .  S
C1850      F1854   1.380       .  S
C1850      F1855   1.380       .  S
C1850      F1856   1.385       .  S
C1857      C1858   1.400       .  A
C1857      C1862   1.403       .  A
C1857      H1864   1.085       .  S
C1858      C1859   1.417       .  A
C1859      C1860   1.411       .  A
C1859      C1866   1.516       .  S
C1860      C1861   1.403       .  A
C1860      H1865   1.083       .  S
C1861      C1862   1.415       .  A
C1862      C1863   1.512       .  S
C1863      F1867   1.384       .  S
C1863      F1868   1.382       .  S
C1863      F1869   1.383       .  S
C1866      F1870   1.383       .  S
C1866      F1871   1.382       .  S
C1866      F1872   1.385       .  S
C1873      C1874   1.409       .  A
C1873      C1878   1.411       .  A
C1873      H1880   1.082       .  S
C1874      C1875   1.428       .  A
C1875      C1876   1.409       .  A
C1875      C1882   1.517       .  S
C1876      C1877   1.398       .  A
C1876      H1881   1.079       .  S
C1877      C1878   1.421       .  A
C1878      C1879   1.520       .  S
C1879      F1883   1.385       .  S
C1879      F1884   1.379       .  S
C1879      F1885   1.380       .  S
C1882      F1886   1.381       .  S
C1882      F1887   1.383       .  S
C1882      F1888   1.385       .  S
C1889      C1890   1.402       .  A
C1889      C1894   1.412       .  A
C1889      H1896   1.084       .  S
C1890      C1891   1.417       .  A
C1891      C1892   1.412       .  A
C1891      C1898   1.511       .  S
C1892      C1893   1.401       .  A
C1892      H1897   1.083       .  S
C1893      C1894   1.420       .  A
C1894      C1895   1.515       .  S
C1895      F1899   1.385       .  S
C1895      F1900   1.384       .  S
C1895      F1901   1.381       .  S
C1898      F1902   1.383       .  S
C1898      F1903   1.382       .  S
C1898      F1904   1.384       .  S
C1905      C1906   1.411       .  A
C1905      C1910   1.405       .  A
C1905      H1912   1.081       .  S
C1906      C1907   1.426       .  A
C1907      C1908   1.410       .  A
C1907      C1914   1.521       .  S
C1908      C1909   1.402       .  A
C1908      H1913   1.083       .  S
C1909      C1910   1.412       .  A
C1910      C1911   1.518       .  S
C1911      F1915   1.385       .  S
C1911      F1916   1.382       .  S
C1911      F1917   1.381       .  S
C1914      F1918   1.383       .  S
C1914      F1919   1.384       .  S
C1914      F1920   1.385       .  S
C1921      C1922   1.405       .  A
C1921      C1926   1.408       .  A
C1921      H1928   1.084       .  S
C1922      C1923   1.419       .  A
C1924      C1925   1.397       .  A
C1924      H1929   1.082       .  S
C1926      C1927   1.514       .  S
C1927      F1931   1.384       .  S
C1927      F1932   1.381       .  S
C1927      F1933   1.382       .  S
C1930      F1936   1.385       .  S
C1937      C1942   1.397       .  A
C1937      H1944   1.081   1_556  S
C1938      C1939   1.423       .  A
C1939      C1946   1.516       .  S
C1940      C1941   1.403       .  A
C1940      H1945   1.083       .  S
C1941      C1942   1.411   1_565  A
C1942      C1943   1.515       .  S
C1943      F1947   1.385       .  S
C1943      F1948   1.382       .  S
C1943      F1949   1.381       .  S
C1946      F1950   1.383       .  S
C1946      F1951   1.384       .  S
C1946      F1952   1.385       .  S
C1953      C1954   1.403   1_545  A
C1953      C1958   1.408       .  A
C1953      H1960   1.083       .  S
C1954      C1955   1.418       .  A
C1955      C1956   1.418       .  A
C1955      C1962   1.517       .  S
C1956      C1957   1.411       .  A
C1956      H1961   1.083       .  S
C1957      C1958   1.422   1_565  A
C1958      C1959   1.516       .  S
C1959      F1963   1.385       .  S
C1959      F1964   1.382       .  S
C1959      F1965   1.381       .  S
C1962      F1966   1.383       .  S
C1962      F1967   1.384       .  S
C1962      F1968   1.384       .  S
C1969      C1970   1.399       .  A
C1969      C1974   1.405       .  A
C1969      H1976   1.084       .  S
C1970      C1971   1.417       .  A
C1971      C1972   1.409       .  A
C1971      C1978   1.516       .  S
C1972      C1973   1.401       .  A
C1972      H1977   1.084       .  S
C1973      C1974   1.416       .  A
C1974      C1975   1.512       .  S
C1975      F1979   1.385   1_556  S
C1975      F1980   1.381       .  S
C1975      F1981   1.382       .  S
C1978      F1982   1.382       .  S
C1978      F1983   1.382       .  S
C1978      F1984   1.385       .  S
C1985      C1986   1.396       .  A
C1985      C1990   1.403       .  A
C1985      H1992   1.075       .  S
C1986      C1987   1.412       .  A
C1987      C1988   1.408       .  A
C1987      C1994   1.521       .  S
C1988      C1989   1.412       .  A
C1988      H1993   1.079       .  S
C1989      C1990   1.427       .  A
C1990      C1991   1.522       .  S
C1991      F1995   1.384       .  S
C1991      F1996   1.384       .  S
C1991      F1997   1.377       .  S
C1994      F1998   1.383       .  S
C1994      F1999   1.382       .  S
C1994      F2000   1.385       .  S
C2001      C2002   1.402       .  A
C2001      C2006   1.404       .  A
C2001      H2008   1.085       .  S
C2002      C2003   1.415       .  A
C2003      C2004   1.411       .  A
C2003      C2010   1.517       .  S
C2004      C2005   1.405       .  A
C2004      H2009   1.084       .  S
C2005      C2006   1.419       .  A
C2006      C2007   1.519       .  S
C2007      F2011   1.383       .  S
C2007      F2012   1.384       .  S
C2007      F2013   1.379       .  S
C2010      F2014   1.383       .  S
C2010      F2015   1.382       .  S
C2010      F2016   1.384       .  S
C2017      C2018   1.410       .  A
C2017      C2022   1.407       .  A
C2017      H2024   1.083       .  S
C2018      C2019   1.423       .  A
C2019      C2020   1.406       .  A
C2019      C2026   1.520       .  S
C2020      C2021   1.401       .  A
C2020      H2025   1.081       .  S
C2021      C2022   1.416       .  A
C2022      C2023   1.520       .  S
C2023      F2027   1.385       .  S
C2023      F2028   1.383       .  S
C2023      F2029   1.382       .  S
C2026      F2030   1.383       .  S
C2026      F2031   1.383       .  S
C2026      F2032   1.385       .  S
C2033      C2034   1.401       .  A
C2033      C2038   1.398       .  A
C2033      H2040   1.085       .  S
C2034      C2035   1.423       .  A
C2035      C2036   1.411       .  A
C2035      C2042   1.518       .  S
C2036      C2037   1.402       .  A
C2036      H2041   1.083       .  S
C2037      C2038   1.414       .  A
C2038      C2039   1.513       .  S
C2039      F2043   1.383       .  S
C2039      F2044   1.384   1_545  S
C2039      F2045   1.380       .  S
C2042      F2046   1.383       .  S
C2042      F2047   1.381       .  S
C2042      F2048   1.385       .  S
C2049      C2050   1.393       .  A
C2049      C2054   1.403       .  A
C2049      H2056   1.084       .  S
C2050      C2051   1.410   1_655  A
C2051      C2052   1.414       .  A
C2051      C2058   1.515       .  S
C2052      C2053   1.412   1_455  A
C2052      H2057   1.082       .  S
C2053      C2054   1.435       .  A
C2055      F2060   1.383       .  S
C2055      F2061   1.380       .  S
C2058      F2062   1.383       .  S
C2058      F2063   1.383       .  S
C2058      F2064   1.384       .  S
C2065      C2066   1.402       .  A
C2065      C2070   1.402       .  A
C2065      H2072   1.083       .  S
C2066      C2067   1.421   1_655  A
C2067      C2068   1.413       .  A
C2067      C2074   1.515       .  S
C2068      C2069   1.401   1_455  A
C2068      H2073   1.082       .  S
C2069      C2070   1.415       .  A
C2070      C2071   1.516       .  S
C2071      F2075   1.384       .  S
C2071      F2076   1.380       .  S
C2071      F2077   1.379       .  S
C2074      F2078   1.383       .  S
C2074      F2079   1.379       .  S
C2074      F2080   1.384       .  S
C2081      C2082   1.403       .  A
C2081      C2086   1.412       .  A
C2081      H2088   1.083       .  S
C2082      C2083   1.416       .  A
C2083      C2084   1.403       .  A
C2083      C2090   1.513       .  S
C2084      C2085   1.399       .  A
C2084      H2089   1.083       .  S
C2085      C2086   1.417       .  A
C2086      C2087   1.514       .  S
C2087      F2091   1.385       .  S
C2087      F2092   1.383       .  S
C2087      F2093   1.381       .  S
C2090      F2094   1.382       .  S
C2090      F2095   1.380       .  S
C2090      F2096   1.385       .  S
C2097      C2098   1.414       .  A
C2097      C2102   1.408       .  A
C2097      H2104   1.082       .  S
C2098      C2099   1.428       .  A
C2099      C2100   1.409       .  A
C2099      C2106   1.522       .  S
C2100      C2101   1.400       .  A
C2100      H2105   1.084       .  S
C2101      C2102   1.409       .  A
C2102      C2103   1.517       .  S
C2103      F2107   1.385       .  S
C2103      F2108   1.382       .  S
C2103      F2109   1.382       .  S
C2106      F2110   1.383       .  S
C2106      F2111   1.383       .  S
C2106      F2112   1.385       .  S
C2113      C2114   1.403       .  A
C2113      C2118   1.412       .  A
C2113      H2120   1.084       .  S
C2114      C2115   1.410       .  A
C2115      C2116   1.411       .  A
C2115      C2122   1.518       .  S
C2116      C2117   1.414       .  A
C2116      H2121   1.082       .  S
C2117      C2118   1.424       .  A
C2118      C2119   1.519       .  S
C2119      F2123   1.385       .  S
C2119      F2124   1.383       .  S
C2119      F2125   1.384       .  S
C2122      F2126   1.382       .  S
C2122      F2127   1.384       .  S
C2122      F2128   1.384       .  S
C2129      C2130   1.400       .  A
C2129      H2136   1.085       .  S
C2131      C2132   1.403       .  A
C2131      C2138   1.516       .  S
C2132      C2133   1.406       .  A
C2132      H2137   1.085       .  S
C2133      C2134   1.420       .  A
C2134      C2135   1.518       .  S
C2135      F2140   1.379       .  S
C2135      F2141   1.383       .  S
C2138      F2143   1.383       .  S
C2138      F2144   1.384       .  S
C2145      C2146   1.399       .  A
C2145      C2150   1.403       .  A
C2145      H2152   1.084       .  S
C2146      C2147   1.415       .  A
C2147      C2148   1.415       .  A
C2147      C2154   1.512       .  S
C2148      C2149   1.405       .  A
C2148      H2153   1.083       .  S
C2149      C2150   1.419       .  A
C2150      C2151   1.513       .  S
C2151      F2155   1.385       .  S
C2151      F2156   1.383       .  S
C2151      F2157   1.382       .  S
C2154      F2158   1.383       .  S
C2154      F2159   1.383       .  S
C2154      F2160   1.384       .  S
C2161      C2162   1.405       .  A
C2161      C2166   1.410       .  A
C2161      H2168   1.083       .  S
C2162      C2163   1.422       .  A
C2163      C2164   1.407       .  A
C2163      C2170   1.518       .  S
C2164      C2165   1.403       .  A
C2164      H2169   1.083       .  S
C2165      C2166   1.423       .  A
C2166      C2167   1.520       .  S
C2167      F2171   1.385       .  S
C2167      F2172   1.382       .  S
C2167      F2173   1.383       .  S
C2170      F2174   1.382       .  S
C2170      F2175   1.382       .  S
C2170      F2176   1.385       .  S
C2177      C2178   1.407       .  A
C2177      C2182   1.404       .  A
C2177      H2184   1.085       .  S
C2178      C2179   1.429       .  A
C2179      C2180   1.405       .  A
C2179      C2186   1.523       .  S
C2180      C2181   1.398       .  A
C2180      H2185   1.084       .  S
C2181      C2182   1.413       .  A
C2182      C2183   1.517       .  S
C2183      F2187   1.383       .  S
C2183      F2188   1.383       .  S
C2183      F2189   1.383       .  S
C2186      F2190   1.381       .  S
C2186      F2191   1.375       .  S
C2186      F2192   1.385       .  S
C2193      C2194   1.406       .  A
C2193      C2198   1.403       .  A
C2193      H2200   1.082       .  S
C2194      C2195   1.425       .  A
C2195      C2196   1.406       .  A
C2195      C2202   1.522       .  S
C2196      C2197   1.402       .  A
C2196      H2201   1.083       .  S
C2197      C2198   1.418       .  A
C2198      C2199   1.522       .  S
C2199      F2203   1.385       .  S
C2199      F2204   1.382       .  S
C2199      F2205   1.381       .  S
C2202      F2206   1.383       .  S
C2202      F2207   1.384       .  S
C2202      F2208   1.385       .  S
C2209      C2210   1.404       .  A
C2209      H2216   1.083       .  S
C2210      C2211   1.421       .  A
C2211      C2212   1.411       .  A
C2211      C2218   1.518       .  S
C2212      H2217   1.081   1_556  S
C2213      C2214   1.420       .  A
C2214      C2215   1.519       .  S
C2215      F2219   1.385       .  S
C2215      F2220   1.383       .  S
C2215      F2221   1.382       .  S
C2218      F2222   1.382       .  S
C2218      F2223   1.383       .  S
C2218      F2224   1.385       .  S
C2225      C2226   1.405       .  A
C2225      C2230   1.412       .  A
C2225      H2232   1.082       .  S
C2226      C2227   1.426       .  A
C2227      C2228   1.407       .  A
C2227      C2234   1.521       .  S
C2228      C2229   1.400       .  A
C2228      H2233   1.083       .  S
C2229      C2230   1.417       .  A
C2230      C2231   1.517       .  S
C2231      F2235   1.384       .  S
C2231      F2236   1.382       .  S
C2231      F2237   1.384       .  S
C2234      F2238   1.382       .  S
C2234      F2239   1.382       .  S
C2234      F2240   1.385       .  S
