geometry optimzed in LAMMPS
_audit_creation_date              2020-12-01 
_audit_creation_method            'lammps2cif' 
_symmetry_space_group_name_H-M    'P1' 
_symmetry_Int_Tables_number       1 
_symmetry_cell_setting            triclinic 
loop_ 
_symmetry_equiv_pos_as_xyz 
  x,y,z 
_cell_length_a                    49.45199327 
_cell_length_b                    49.3469875043999 
_cell_length_c                    29.232121278042857 
_cell_angle_alpha                 89.85306761637628 
_cell_angle_beta                  90.19255697396652 
_cell_angle_gamma                 90.08818931181521 
loop_ 
_atom_site_label 
_atom_site_type_symbol 
_atom_site_fract_x 
_atom_site_fract_y 
_atom_site_fract_z 
_atom_site_charge 
O1          O  0.51692827  0.70923165  0.96071511    -0.85700
O2          O  0.54464853  0.73154289  0.03113795    -0.82700
C3          C  0.56368995  0.73447042  0.05922796     0.97800
O4          O  0.58811031  0.73142805  0.04689652    -0.82800
O5          O  0.60038634  0.67904908  0.01713918    -0.85400
C6          C  0.60230393  0.65850855  0.99179177     1.02300
O7          O  0.59446759  0.66018689  0.95069606    -0.78200
O8          O  0.53980543  0.67084217  0.95980718    -0.78300
C9          C  0.51805279  0.68355928  0.96640569     1.02300
O10         O  0.54580125  0.74624676  0.89808213    -0.85700
O11         O  0.57214364  0.76987752  0.97555524    -0.82700
C12         C  0.59768500  0.77242276  0.97215995     0.97800
O13         O  0.61207749  0.75199056  0.96426131    -0.82800
O14         O  0.62652183  0.70128048  0.93623813    -0.85400
C15         C  0.62069007  0.70016495  0.89383028     1.02300
O16         O  0.59642745  0.70027832  0.88052997    -0.78200
O17         O  0.54061279  0.70363720  0.88089317    -0.78300
C18         C  0.53714855  0.72826613  0.87104992     1.02200
Cr19       Cr  0.54703036  0.73751942  0.96522580     1.93700
Cr20       Cr  0.60425196  0.71572821  0.98899617     1.93200
Cr21       Cr  0.56825476  0.68591810  0.92094728     1.39100
O22         O  0.57315504  0.71325532  0.95891657    -1.23400
O23         O  0.72366967  0.49823259  0.58739605    -0.85700
O24         O  0.74358614  0.52491906  0.51313775    -0.82700
C25         C  0.74596756  0.54337038  0.48356728     0.97800
O26         O  0.74398625  0.56807906  0.49515218    -0.82800
O27         O  0.69127691  0.57945427  0.51999456    -0.85400
C28         C  0.66973865  0.57990730  0.54280275     1.02300
O29         O  0.67016868  0.57255292  0.58421109    -0.78200
O30         O  0.68441336  0.51852336  0.58129809    -0.78300
C31         C  0.69846685  0.49726773  0.57894047     1.02300
O32         O  0.75795572  0.53090379  0.64593876    -0.85700
O33         O  0.78088473  0.55521386  0.56691755    -0.82700
C34         C  0.78276663  0.58073326  0.57100532     0.97800
O35         O  0.76183402  0.59454711  0.57792376    -0.82800
O36         O  0.70993479  0.60836137  0.60015642    -0.85400
C37         C  0.70727536  0.60357682  0.64262779     1.02300
O38         O  0.70724956  0.57969682  0.65786288    -0.78200
O39         O  0.71535979  0.52489275  0.66294480    -0.78300
C40         C  0.73999505  0.52381272  0.67426903     1.02200
Cr41       Cr  0.74973813  0.52941875  0.57900251     1.93700
Cr42       Cr  0.72665255  0.58520050  0.55071754     1.93200
Cr43       Cr  0.69644675  0.54929336  0.61871913     1.39100
O44         O  0.72444532  0.55473630  0.58263683    -1.23400
O45         O  0.56183983  0.23653088  0.53417299    -0.85700
O46         O  0.52534805  0.27057555  0.49180429    -0.82700
C47         C  0.51904367  0.29255995  0.47219846     0.97800
O48         O  0.53358062  0.30211718  0.44075161    -0.82800
O49         O  0.58098790  0.32258801  0.47497053    -0.85400
C50         C  0.60474580  0.32383476  0.49027704     1.02300
O51         O  0.61958662  0.30322185  0.48944883    -0.78200
O52         O  0.59237557  0.26781416  0.54891729    -0.78300
C53         C  0.57434423  0.25135352  0.56259485     1.02300
O54         O  0.57530459  0.21238414  0.44813010    -0.85700
O55         O  0.53608940  0.24542761  0.40543694    -0.82700
C56         C  0.54347318  0.25780544  0.36959451     0.97800
O57         O  0.56237358  0.27491790  0.37094552    -0.82800
O58         O  0.60959806  0.29764864  0.39976461    -0.85400
C59         C  0.62744027  0.27936810  0.39708143     1.02300
O60         O  0.62886289  0.26074524  0.42707027    -0.78200
O61         O  0.60897991  0.22430351  0.49255683    -0.78300
C62         C  0.59678588  0.20655592  0.46963908     1.02200
Cr63       Cr  0.55189303  0.24324798  0.46878536     1.93700
Cr64       Cr  0.57213532  0.29683426  0.42477025     1.93200
Cr65       Cr  0.60973089  0.26426297  0.48732069     1.39100
O66         O  0.57776726  0.26794085  0.45980397    -1.23400
O67         O  0.74362749  0.45733643  0.01141402    -0.85700
O68         O  0.72519167  0.48525197  0.08511388    -0.82700
C69         C  0.69965390  0.48446372  0.07941940     0.97800
O70         O  0.68712601  0.46236176  0.08491477    -0.82800
O71         O  0.67680975  0.40709965  0.09540343    -0.85400
C72         C  0.67555147  0.39770877  0.05538932     1.02300
O73         O  0.69595313  0.39929375  0.02995477    -0.78200
O74         O  0.74628525  0.41371523  0.99693515    -0.78300
C75         C  0.74672490  0.43827862  0.98345914     1.02300
O76         O  0.78515984  0.43110348  0.06174519    -0.85700
O77         O  0.76388311  0.45627468  0.14208747    -0.82700
C78         C  0.74654351  0.46451634  0.17050079     0.97800
O79         O  0.72166218  0.46058623  0.16299522    -0.82800
O80         O  0.71626542  0.40479859  0.16542644    -0.85400
C81         C  0.71742992  0.38027529  0.15326600     1.02300
O82         O  0.71983964  0.37437716  0.11096774    -0.78200
O83         O  0.76971123  0.39096911  0.07965792    -0.78300
C84         C  0.78899508  0.40583701  0.06714923     1.02200
Cr85       Cr  0.75286172  0.45521754  0.07634536     1.93700
Cr86       Cr  0.70256640  0.43337079  0.12407933     1.93200
Cr87       Cr  0.73271239  0.39705619  0.05661752     1.39100
O88         O  0.72956811  0.42839167  0.08560105    -1.23400
O89         O  0.50830712  0.26745029  0.96150623    -0.85700
O90         O  0.47864570  0.24731110  0.03234406    -0.82700
C91         C  0.45902706  0.24707179  0.05968083     0.97800
O92         O  0.43492101  0.25055769  0.04567306    -0.82800
O93         O  0.42360326  0.30188714  0.01232970    -0.85400
C94         C  0.42368929  0.32244867  0.98672752     1.02300
O95         O  0.43324865  0.32034470  0.94696845    -0.78200
O96         O  0.48724466  0.30669113  0.96098813    -0.78300
C97         C  0.50862515  0.29309347  0.96642315     1.02300
O98         O  0.47851258  0.23182085  0.89956205    -0.85700
O99         O  0.45124830  0.20961201  0.97622656    -0.82700
C100        C  0.42587557  0.20755828  0.97097318     0.97800
O101        O  0.41188976  0.22826836  0.96282762    -0.82800
O102        O  0.39927372  0.27857281  0.93034869    -0.85400
C103        C  0.40596431  0.28039285  0.88836580     1.02300
O104        O  0.43059772  0.28089364  0.87724306    -0.78200
O105        O  0.48599968  0.27412140  0.88163793    -0.78300
C106        C  0.48792913  0.24930799  0.87229440     1.02200
Cr107      Cr  0.47702405  0.24093435  0.96625210     1.93700
Cr108      Cr  0.42006046  0.26487855  0.98566823     1.93200
Cr109      Cr  0.45872580  0.29331058  0.91993924     1.39100
O110        O  0.45183066  0.26616794  0.95774142    -1.23400
O111        O  0.29923452  0.48243519  0.57819157    -0.85700
O112        O  0.27900910  0.45309573  0.50788851    -0.82700
C113        C  0.27663716  0.43324371  0.48125367     0.97800
O114        O  0.27542120  0.40918456  0.49684205    -0.82800
O115        O  0.32655166  0.39509604  0.52727226    -0.85400
C116        C  0.34784958  0.39485455  0.55097390     1.02300
O117        O  0.34757707  0.40497913  0.59063369    -0.78200
O118        O  0.33748759  0.46004938  0.57822819    -0.78300
C119        C  0.32465244  0.48185526  0.57184694     1.02300
O120        O  0.26228417  0.45572182  0.64017001    -0.85700
O121        O  0.23839018  0.42871837  0.56434559    -0.82700
C122        C  0.23464231  0.40394745  0.57418266     0.97800
O123        O  0.25446519  0.38909715  0.58368923    -0.82800
O124        O  0.30450862  0.37288900  0.61127416    -0.85400
C125        C  0.30767718  0.37977478  0.65285550     1.02300
O126        O  0.30944050  0.40453967  0.66322363    -0.78200
O127        O  0.30505802  0.46018572  0.65835376    -0.78300
C128        C  0.28042560  0.46424676  0.66715679     1.02200
Cr129      Cr  0.27130031  0.45277540  0.57368252     1.93700
Cr130      Cr  0.29046836  0.39415644  0.55674519     1.93200
Cr131      Cr  0.32270768  0.43193755  0.61963139     1.39100
O132        O  0.29474295  0.42621175  0.58311368    -1.23400
O133        O  0.47567513  0.72547551  0.52605723    -0.85700
O134        O  0.50088153  0.70520245  0.45161527    -0.82700
C135        C  0.49876782  0.67966808  0.45715032     0.97800
O136        O  0.47607461  0.66824439  0.45229688    -0.82800
O137        O  0.42061368  0.66094597  0.44409097    -0.85400
C138        C  0.41310229  0.65944149  0.48514861     1.02300
O139        O  0.41564090  0.67971123  0.51088922    -0.78200
O140        O  0.43259208  0.72996986  0.54270628    -0.78300
C141        C  0.45724618  0.72850765  0.55515449     1.02300
O142        O  0.45060170  0.76816932  0.47543662    -0.85700
O143        O  0.47323162  0.74517706  0.39454694    -0.82700
C144        C  0.47904595  0.72729996  0.36519727     0.97800
O145        O  0.47518656  0.70270739  0.37482702    -0.82800
O146        O  0.41961094  0.70120220  0.37497373    -0.85400
C147        C  0.39542454  0.70301464  0.38817217     1.02300
O148        O  0.39019511  0.70499119  0.43080033    -0.78200
O149        O  0.40946444  0.75417878  0.46109974    -0.78300
C150        C  0.42551589  0.77309659  0.47102877     1.02200
Cr151      Cr  0.47280243  0.73456844  0.46088323     1.93700
Cr152      Cr  0.44765254  0.68537976  0.41464978     1.93200
Cr153      Cr  0.41433186  0.71691244  0.48410314     1.39100
O154        O  0.44483354  0.71248996  0.45347026    -1.23400
O155        O  0.26469122  0.53780525  0.00378389    -0.85700
O156        O  0.29982685  0.50107088  0.04398912    -0.82700
C157        C  0.32041030  0.49355903  0.06650894     0.97800
O158        O  0.32733941  0.50606886  0.10236853    -0.82800
O159        O  0.35140541  0.55390212  0.07544242    -0.85400
C160        C  0.35310066  0.57665989  0.05584439     1.02300
O161        O  0.33264781  0.59176735  0.05245490    -0.78200
O162        O  0.29658427  0.56784159  0.99212745    -0.78300
C163        C  0.27971864  0.55083015  0.97665659     1.02300
O164        O  0.24002243  0.54850024  0.08962960    -0.85700
O165        O  0.27227940  0.50726153  0.12966897    -0.82700
C166        C  0.28059644  0.51565571  0.16805765     0.97800
O167        O  0.29689725  0.53528994  0.17013748    -0.82800
O168        O  0.32377912  0.58183045  0.14694908    -0.85400
C169        C  0.30706678  0.60115636  0.14685684     1.02300
O170        O  0.28985279  0.60344314  0.11484662    -0.78200
O171        O  0.25285269  0.58441040  0.05057613    -0.78300
C172        C  0.23470777  0.57123076  0.07132446     1.02200
Cr173      Cr  0.27129364  0.52588799  0.06819005     1.93700
Cr174      Cr  0.32244868  0.54480108  0.12031488     1.93200
Cr175      Cr  0.29313833  0.58408528  0.05469867     1.39100
O176        O  0.29559502  0.55164775  0.08126856    -1.23400
O177        O  0.01529505  0.20768802  0.47605624    -0.85700
O178        O  0.04477553  0.23058078  0.54432407    -0.82700
C179        C  0.06441027  0.23179447  0.57172159     0.97800
O180        O  0.08856843  0.22785457  0.55867082    -0.82800
O181        O  0.09958158  0.17534844  0.53301051    -0.85400
C182        C  0.09863034  0.15357512  0.51072202     1.02300
O183        O  0.08956887  0.15391754  0.47040790    -0.78200
O184        O  0.03602292  0.16852486  0.48245041    -0.78300
C185        C  0.01483366  0.18254533  0.48608050     1.02300
O186        O  0.04608783  0.24040841  0.41020909    -0.85700
O187        O  0.07269642  0.26554625  0.48524776    -0.82700
C188        C  0.09812479  0.26744111  0.48132549     0.97800
O189        O  0.11200143  0.24654963  0.47405792    -0.82800
O190        O  0.12403412  0.19444240  0.44811254    -0.85400
C191        C  0.11663752  0.19053336  0.40684085     1.02300
O192        O  0.09196556  0.19052552  0.39605470    -0.78200
O193        O  0.03718188  0.19767599  0.39879053    -0.78300
C194        C  0.03618800  0.22195091  0.38543883     1.02200
Cr195      Cr  0.04675672  0.23420838  0.47794972     1.93700
Cr196      Cr  0.10352949  0.21091672  0.50129614     1.93200
Cr197      Cr  0.06428531  0.17991344  0.43975440     1.39100
O198        O  0.07166808  0.20854873  0.47356850    -1.23400
O199        O  0.22702479  0.99560146  0.09601259    -0.85700
O200        O  0.24626303  0.02444400  0.02489024    -0.82700
C201        C  0.24931359  0.04377637  0.99730336     0.97800
O202        O  0.24867669  0.06818240  0.01141727    -0.82800
O203        O  0.19797850  0.08308263  0.04398878    -0.85400
C204        C  0.17718684  0.08335255  0.06878783     1.02300
O205        O  0.17808823  0.07293522  0.10823567    -0.78200
O206        O  0.18897495  0.01841944  0.09448678    -0.78300
C207        C  0.20171953  0.99660692  0.08841831     1.02300
O208        O  0.26484822  0.02374786  0.15602226    -0.85700
O209        O  0.28716192  0.04943803  0.07755576    -0.82700
C210        C  0.29109561  0.07449738  0.08397240     0.97800
O211        O  0.27168027  0.08934896  0.09554729    -0.82800
O212        O  0.22184883  0.10502964  0.12669473    -0.85400
C213        C  0.21921576  0.09765740  0.16828553     1.02300
O214        O  0.21770799  0.07292957  0.17853393    -0.78200
O215        O  0.22239667  0.01792787  0.17405989    -0.78300
C216        C  0.24718471  0.01485002  0.18334265     1.02200
Cr217      Cr  0.25473254  0.02551101  0.08984590     1.93700
Cr218      Cr  0.23480944  0.08390454  0.07140711     1.93200
Cr219      Cr  0.20385491  0.04601973  0.13581650     1.39100
O220        O  0.23123282  0.05199164  0.09866462    -1.23400
O221        O  0.04637303  0.75451218  0.04130934    -0.85700
O222        O  0.02222966  0.77436215  0.96453828    -0.82700
C223        C  0.02349506  0.80001063  0.96928599     0.97800
O224        O  0.04584239  0.81206566  0.96484372    -0.82800
O225        O  0.10075173  0.82134849  0.96055765    -0.85400
C226        C  0.10651656  0.82395545  0.00224998     1.02300
O227        O  0.10409428  0.80382724  0.02850154    -0.78200
O228        O  0.08917296  0.75321384  0.06156796    -0.78300
C229        C  0.06423316  0.75236161  0.07188913     1.02300
O230        O  0.07426671  0.71327764  0.99241057    -0.85700
O231        O  0.05242152  0.73504081  0.91035580    -0.82700
C232        C  0.04724245  0.75245876  0.87980188     0.97800
O233        O  0.04977719  0.77725479  0.88867716    -0.82800
O234        O  0.10526214  0.78050101  0.89386018    -0.85400
C235        C  0.12903172  0.78060819  0.90970958     1.02300
O236        O  0.13296647  0.77885576  0.95274369    -0.78200
O237        O  0.11547904  0.72901192  0.98356791    -0.78300
C238        C  0.09962573  0.70941113  0.99029802     1.02200
Cr239      Cr  0.05107143  0.74591835  0.97630814     1.93700
Cr240      Cr  0.07558331  0.79562651  0.93021231     1.93200
Cr241      Cr  0.10809267  0.76640338  0.00406189     1.39100
O242        O  0.07834113  0.76902394  0.97044334    -1.23400
O243        O  0.24604602  0.95579754  0.52406743    -0.85700
O244        O  0.22663204  0.98414545  0.59584482    -0.82700
C245        C  0.20113634  0.98265291  0.59035533     0.97800
O246        O  0.18919340  0.96020774  0.59608820    -0.82800
O247        O  0.18107331  0.90464269  0.60950811    -0.85400
C248        C  0.18013567  0.89490828  0.56972051     1.02300
O249        O  0.20082869  0.89579930  0.54481171    -0.78200
O250        O  0.25055328  0.91201858  0.51184663    -0.78300
C251        C  0.24838295  0.93619154  0.49700792     1.02300
O252        O  0.28878001  0.93237399  0.57646761    -0.85700
O253        O  0.26585949  0.95781048  0.65511439    -0.82700
C254        C  0.24787582  0.96537785  0.68300101     0.97800
O255        O  0.22329610  0.96092143  0.67410021    -0.82800
O256        O  0.22094430  0.90589308  0.67914985    -0.85400
C257        C  0.22309763  0.88114357  0.66932461     1.02300
O258        O  0.22565823  0.87395883  0.62770606    -0.78200
O259        O  0.27477410  0.89205189  0.59623626    -0.78300
C260        C  0.29368957  0.90753651  0.58423803     1.02200
Cr261      Cr  0.25539075  0.95524976  0.58902888     1.93700
Cr262      Cr  0.20569564  0.93249156  0.63656575     1.93200
Cr263      Cr  0.23767922  0.89593835  0.57216466     1.39100
O264        O  0.23302804  0.92777944  0.59894025    -1.23400
O265        O  0.00602331  0.77395865  0.47184981    -0.85700
O266        O  0.97867021  0.75426424  0.54518611    -0.82700
C267        C  0.95997367  0.75298748  0.57413997     0.97800
O268        O  0.93550392  0.75664012  0.56251589    -0.82800
O269        O  0.92553856  0.80902118  0.53286339    -0.85400
C270        C  0.92514508  0.82994707  0.50810768     1.02300
O271        O  0.93214134  0.82820138  0.46674976    -0.78200
O272        O  0.98634518  0.81387973  0.47210825    -0.78300
C273        C  0.00716141  0.79943936  0.47804641     1.02300
O274        O  0.97401995  0.73892261  0.41292670    -0.85700
O275        O  0.94835993  0.71723958  0.49047861    -0.82700
C276        C  0.92290513  0.71591074  0.48537327     0.97800
O277        O  0.90911278  0.73713993  0.48075603    -0.82800
O278        O  0.89640413  0.78852257  0.45369886    -0.85400
C279        C  0.90125734  0.78954326  0.41104987     1.02300
O280        O  0.92519949  0.78891916  0.39646719    -0.78200
O281        O  0.98014721  0.78116399  0.39293200    -0.78300
C282        C  0.98123035  0.75626948  0.38362630     1.02200
Cr283      Cr  0.97466392  0.74805143  0.47935426     1.93700
Cr284      Cr  0.91916301  0.77287944  0.50510681     1.93200
Cr285      Cr  0.95552533  0.80090173  0.43520559     1.39100
O286        O  0.94976749  0.77375886  0.47358284    -1.23400
O287        O  0.80197210  0.98277255  0.09267210    -0.85700
O288        O  0.78062697  0.95657696  0.02000699    -0.82700
C289        C  0.77851039  0.93812143  0.99067289     0.97800
O290        O  0.77907352  0.91333289  0.00248796    -0.82800
O291        O  0.83116251  0.90016914  0.03073744    -0.85400
C292        C  0.85226344  0.89878422  0.05491492     1.02300
O293        O  0.85113203  0.90563714  0.09633727    -0.78200
O294        O  0.83996611  0.95989670  0.08892174    -0.78300
C295        C  0.82714943  0.98174929  0.08391631     1.02300
O296        O  0.76554916  0.95292302  0.15275240    -0.85700
O297        O  0.74158420  0.92835545  0.07431654    -0.82700
C298        C  0.73851333  0.90286139  0.07834841     0.97800
O299        O  0.75874610  0.88781642  0.08456462    -0.82800
O300        O  0.81003220  0.87240208  0.11082659    -0.85400
C301        C  0.81287392  0.87737878  0.15329731     1.02300
O302        O  0.81309317  0.90139018  0.16795397    -0.78200
O303        O  0.80833442  0.95709986  0.16989401    -0.78300
C304        C  0.78384439  0.95959351  0.18092581     1.02200
Cr305      Cr  0.77402666  0.95293083  0.08577431     1.93700
Cr306      Cr  0.79491925  0.89583637  0.05954655     1.93200
Cr307      Cr  0.82588508  0.93074224  0.12794247     1.39100
O308        O  0.79793144  0.92633758  0.09106163    -1.23400
O309        O  0.96225913  0.24329356  0.04332460    -0.85700
O310        O  0.00013968  0.21012888  0.00330202    -0.82700
C311        C  0.00837387  0.18932763  0.98239934     0.97800
O312        O  0.99505747  0.18032317  0.94868682    -0.82800
O313        O  0.94926211  0.15520959  0.98143723    -0.85400
C314        C  0.92559017  0.15225113  0.99625362     1.02300
O315        O  0.91002932  0.17240686  0.99871007    -0.78200
O316        O  0.93480924  0.20936599  0.05774471    -0.78300
C317        C  0.95180943  0.22684181  0.07140547     1.02300
O318        O  0.94821246  0.26590739  0.95616560    -0.85700
O319        O  0.98967583  0.23481141  0.91593319    -0.82700
C320        C  0.98147384  0.22347539  0.87967500     0.97800
O321        O  0.96240109  0.20671493  0.88086865    -0.82800
O322        O  0.91818650  0.17926147  0.90833933    -0.85400
C323        C  0.89889183  0.19605801  0.90664024     1.02300
O324        O  0.89667720  0.21439066  0.93679176    -0.78200
O325        O  0.91499622  0.25253267  0.00042278    -0.78300
C326        C  0.92618429  0.27071830  0.97660109     1.02200
Cr327      Cr  0.97303345  0.23650185  0.97857294     1.93700
Cr328      Cr  0.95574410  0.18272682  0.93298670     1.93200
Cr329      Cr  0.91667453  0.21216132  0.99659672     1.39100
O330        O  0.94850857  0.21056384  0.96906318    -1.23400
O331        O  0.77807273  0.02435513  0.52067915    -0.85700
O332        O  0.79464086  0.99650586  0.59572515    -0.82700
C333        C  0.82019778  0.99797466  0.59187673     0.97800
O334        O  0.83198715  0.02024882  0.59915636    -0.82800
O335        O  0.84072047  0.07518003  0.60993512    -0.85400
C336        C  0.84294013  0.08392975  0.56949553     1.02300
O337        O  0.82292957  0.08294758  0.54283149    -0.78200
O338        O  0.77344980  0.06781527  0.50628750    -0.78300
C339        C  0.77472660  0.04336621  0.49251139     1.02300
O340        O  0.73430755  0.04886677  0.56767668    -0.85700
O341        O  0.75359502  0.02435131  0.64882034    -0.82700
C342        C  0.77003446  0.01694969  0.67947221     0.97800
O343        O  0.79512442  0.02073262  0.67436836    -0.82800
O344        O  0.79928175  0.07636831  0.67672276    -0.85400
C345        C  0.79886001  0.10091620  0.66467775     1.02300
O346        O  0.79718973  0.10705094  0.62229409    -0.78200
O347        O  0.74794243  0.08928936  0.58811379    -0.78300
C348        C  0.72932319  0.07365782  0.57512123     1.02200
Cr349      Cr  0.76664951  0.02571981  0.58448659     1.93700
Cr350      Cr  0.81479021  0.04844624  0.63687640     1.93200
Cr351      Cr  0.78556190  0.08440596  0.56708408     1.39100
O352        O  0.78884601  0.05301152  0.59604083    -1.23400
C353        C  0.80371506  0.12213719  0.70031107    -0.20200
C354        C  0.80196351  0.11593103  0.74762027     0.36000
C355        C  0.81332657  0.13372926  0.78001266    -0.26200
C356        C  0.82576573  0.15808133  0.76671610     0.02500
C357        C  0.82492784  0.16564438  0.72001920     0.27300
C358        C  0.81407804  0.14757895  0.68734333    -0.25300
N359        N  0.78960038  0.09106235  0.76264492    -0.82700
H360        H  0.81377327  0.12778761  0.81570437     0.13100
C361        C  0.84266528  0.17320946  0.80091852     0.02400
N362        N  0.83597050  0.19126417  0.70581350    -0.81200
H363        H  0.81512928  0.15281817  0.65138419     0.17900
C364        C  0.86996845  0.17808544  0.79071323    -0.26100
C365        C  0.88805507  0.18784127  0.82402093     0.35900
C366        C  0.87889312  0.19264707  0.86900807    -0.20100
C367        C  0.85127889  0.18954405  0.87870969    -0.25400
C368        C  0.83304122  0.17988259  0.84507218     0.27300
H369        H  0.87760866  0.17289452  0.75717323     0.13100
N370        N  0.91605198  0.19199768  0.81279504    -0.82600
H371        H  0.84422953  0.19314027  0.91321407     0.17900
N372        N  0.80498210  0.17603269  0.85594595    -0.81200
H373        H  0.91969315  0.18716811  0.77855901     0.33500
H374        H  0.92011402  0.21269131  0.81626469     0.38000
H375        H  0.80119171  0.18164236  0.88978212     0.33500
H376        H  0.79378247  0.18917475  0.83516290     0.30200
H377        H  0.83400873  0.19373235  0.67041911     0.33500
H378        H  0.82436749  0.20647511  0.72093593     0.30200
H379        H  0.79031279  0.08939393  0.79829264     0.38100
H380        H  0.76914523  0.09188211  0.75357406     0.33600
C381        C  0.84218052  0.00613408  0.06895134    -0.20200
C382        C  0.83595721  0.03223627  0.08545749     0.36000
C383        C  0.85201001  0.05431347  0.07199388    -0.26200
C384        C  0.87358843  0.05107045  0.04142361     0.02500
C385        C  0.87972378  0.02511891  0.02457727     0.27300
C386        C  0.86415124  0.00284626  0.03897280    -0.25300
N387        N  0.81399010  0.03620758  0.11682093    -0.82700
H388        H  0.84745105  0.07436491  0.08487804     0.13100
C389        C  0.88821014  0.07558640  0.02566753     0.02400
N390        N  0.90139416  0.02157426  0.99249849    -0.81200
H391        H  0.86889735  0.98283508  0.02611037     0.17900
C392        C  0.91594930  0.07892039  0.03493249    -0.26100
C393        C  0.92917854  0.10360038  0.02492450     0.35900
C394        C  0.91412239  0.12515547  0.00588393    -0.20100
C395        C  0.88676287  0.12109792  0.99474083    -0.25400
C396        C  0.87379454  0.09651423  0.00382960     0.27300
H397        H  0.92700505  0.06260139  0.05129625     0.13100
N398        N  0.95742912  0.10703515  0.03506372    -0.82600
H399        H  0.87536776  0.13724649  0.97850972     0.17900
N400        N  0.84588274  0.09270722  0.99134643    -0.81200
H401        H  0.96549483  0.08917245  0.04870252     0.33500
H402        H  0.95910599  0.12177901  0.06054758     0.38000
H403        H  0.83811918  0.11013931  0.97573675     0.33500
H404        H  0.84510131  0.07733595  0.96682053     0.30200
H405        H  0.90328795  0.00116454  0.98355410     0.33500
H406        H  0.89617420  0.03199391  0.96256186     0.30200
H407        H  0.79599722  0.03330115  0.09861092     0.38100
H408        H  0.81356444  0.05626416  0.12824456     0.33600
C409        C  0.77459779  0.94642343  0.94228962    -0.20200
C410        C  0.78823835  0.96945589  0.92494524     0.36000
C411        C  0.78173409  0.97931658  0.88122290    -0.26200
C412        C  0.76215899  0.96655856  0.85402110     0.02500
C413        C  0.74897421  0.94314873  0.87056926     0.27300
C414        C  0.75538844  0.93320721  0.91464239    -0.25300
N415        N  0.80879274  0.98267910  0.95181288    -0.82700
H416        H  0.79226390  0.99691439  0.86789927     0.13100
C417        C  0.75747908  0.97729977  0.80715822     0.02400
N418        N  0.72892375  0.92988278  0.84283462    -0.81200
H419        H  0.74473230  0.91571988  0.92804851     0.17900
C420        C  0.76757514  0.96272464  0.76988841    -0.26100
C421        C  0.76963744  0.97482808  0.72647641     0.35900
C422        C  0.76112067  0.00186020  0.72025151    -0.20100
C423        C  0.74893501  0.01570978  0.75650103    -0.25400
C424        C  0.74707250  0.00363830  0.80012873     0.27300
H425        H  0.77555426  0.94253347  0.77541282     0.13100
N426        N  0.78178209  0.96038349  0.68916425    -0.82600
H427        H  0.74259458  0.03653084  0.75157344     0.17900
N428        N  0.73589881  0.01840541  0.83789448    -0.81200
H429        H  0.78739866  0.94086892  0.69944185     0.33500
H430        H  0.76703521  0.95805555  0.66376298     0.38000
H431        H  0.72940166  0.03756484  0.82720266     0.33500
H432        H  0.71868681  0.00794232  0.84883947     0.30200
H433        H  0.72104867  0.91302124  0.85998580     0.33500
H434        H  0.71289900  0.94342697  0.83824196     0.30200
H435        H  0.82466133  0.96894210  0.95633543     0.38100
H436        H  0.81679363  0.99933133  0.93424445     0.33600
C437        C  0.77782328  0.97189135  0.22617596    -0.20200
C438        C  0.79567640  0.96762542  0.26349072     0.36000
C439        C  0.79229495  0.98241034  0.30397312    -0.26200
C440        C  0.77132113  0.00118001  0.30861309     0.02500
C441        C  0.75289287  0.00498379  0.27223298     0.27300
C442        C  0.75634484  0.99030621  0.23116027    -0.25300
N443        N  0.81722787  0.94818041  0.26017817    -0.82700
H444        H  0.80598304  0.97909994  0.33248439     0.13100
C445        C  0.76802194  0.01448973  0.35377183     0.02400
N446        N  0.73097920  0.02382687  0.27706197    -0.81200
H447        H  0.74276034  0.99381405  0.20261188     0.17900
C448        C  0.77832722  0.04067280  0.36157600    -0.26100
C449        C  0.77993799  0.05141094  0.40639330     0.35900
C450        C  0.77087971  0.03558487  0.44370243    -0.20100
C451        C  0.75931458  0.01001608  0.43498795    -0.25400
C452        C  0.75794448  0.99931551  0.39071527     0.27300
H453        H  0.78631896  0.05214278  0.33299418     0.13100
N454        N  0.79177033  0.07760856  0.41417776    -0.82600
H455        H  0.75189916  0.99785898  0.46322500     0.17900
N456        N  0.74741007  0.97250395  0.38321321    -0.81200
H457        H  0.79739890  0.08654061  0.38316392     0.33500
H458        H  0.80959003  0.07469703  0.43287377     0.38000
H459        H  0.74130393  0.96369884  0.41406320     0.33500
H460        H  0.73005581  0.97436273  0.36291556     0.30200
H461        H  0.71935076  0.02442252  0.24714334     0.33500
H462        H  0.71833373  0.01653739  0.30292962     0.30200
H463        H  0.80839945  0.92901675  0.25681277     0.38100
H464        H  0.82868033  0.94772321  0.29030231     0.33600
C465        C  0.87936551  0.79419450  0.37766117    -0.20200
C466        C  0.86276257  0.81727888  0.38101911     0.36000
C467        C  0.84731461  0.82532411  0.34293015    -0.26200
C468        C  0.84769084  0.81040607  0.30204048     0.02500
C469        C  0.86227962  0.78586761  0.30041348     0.27300
C470        C  0.87833168  0.77821881  0.33806024    -0.25300
N471        N  0.86345720  0.83372546  0.42154955    -0.82700
H472        H  0.83629747  0.84426467  0.34420606     0.13100
C473        C  0.83612616  0.82287912  0.25990126     0.02400
N474        N  0.86148476  0.76941763  0.25992445    -0.81200
H475        H  0.89090635  0.76030281  0.33591471     0.17900
C476        C  0.85322039  0.82715315  0.22224153    -0.26100
C477        C  0.84504426  0.84330033  0.18508407     0.35900
C478        C  0.81931149  0.85552502  0.18578619    -0.20100
C479        C  0.80172586  0.85034645  0.22225573    -0.25400
C480        C  0.80974403  0.83378653  0.25911030     0.27300
H481        H  0.87364060  0.81923017  0.22308506     0.13100
N482        N  0.86354452  0.84913560  0.14847638    -0.82600
H483        H  0.78206838  0.86002238  0.22267122     0.17900
N484        N  0.79158657  0.82869903  0.29644284    -0.81200
H485        H  0.88208381  0.83949341  0.15403887     0.33500
H486        H  0.85546196  0.84085746  0.11851399     0.38000
H487        H  0.77305636  0.83833260  0.29077428     0.33500
H488        H  0.78764267  0.80787959  0.29712553     0.30200
H489        H  0.87343615  0.75212511  0.26418994     0.33500
H490        H  0.84158261  0.76267288  0.25570381     0.30200
H491        H  0.85507614  0.82231476  0.44814934     0.38100
H492        H  0.85110898  0.85075738  0.41759064     0.33600
C493        C  0.91405722  0.85595750  0.52577509    -0.20200
C494        C  0.91823285  0.88084175  0.50247809     0.36000
C495        C  0.90400638  0.90408064  0.51628684    -0.26200
C496        C  0.88594380  0.90318042  0.55310373     0.02500
C497        C  0.88284206  0.87885449  0.57793371     0.27300
C498        C  0.89689201  0.85551189  0.56404721    -0.25300
N499        N  0.93657007  0.88241293  0.46448386    -0.82700
H500        H  0.90648155  0.92288101  0.49750911     0.13100
C501        C  0.86938205  0.92747943  0.56376324     0.02400
N502        N  0.86507330  0.87790344  0.61672437    -0.81200
H503        H  0.89363237  0.83665774  0.58228541     0.17900
C504        C  0.84115878  0.92585647  0.55983460    -0.26100
C505        C  0.82461988  0.94850969  0.56796736     0.35900
C506        C  0.83660080  0.97342512  0.58112538    -0.20100
C507        C  0.86499995  0.97491210  0.58476742    -0.25400
C508        C  0.88144913  0.95224944  0.57630473     0.27300
H509        H  0.83202528  0.90684973  0.54948223     0.13100
N510        N  0.79581063  0.94620797  0.56238948    -0.82600
H511        H  0.87451265  0.99378584  0.59476284     0.17900
N512        N  0.91034867  0.95419844  0.58078957    -0.81200
H513        H  0.79033817  0.92633953  0.55412242     0.33500
H514        H  0.79031680  0.95820062  0.53431453     0.38000
H515        H  0.91606925  0.97384452  0.59007547     0.33500
H516        H  0.91621406  0.94146959  0.60767698     0.30200
H517        H  0.86486680  0.85848842  0.63113388     0.33500
H518        H  0.87300179  0.89089539  0.64159643     0.30200
H519        H  0.95600881  0.87853614  0.47705367     0.38100
H520        H  0.93697437  0.90201464  0.45082993     0.33600
C521        C  0.03321933  0.81268305  0.49050860    -0.20200
C522        C  0.05440545  0.79847329  0.51277885     0.36000
C523        C  0.07817120  0.81239893  0.52511690    -0.26200
C524        C  0.08147014  0.84001004  0.51518296     0.02500
C525        C  0.06053024  0.85419837  0.49287994     0.27300
C526        C  0.03664796  0.84043727  0.48085747    -0.25300
N527        N  0.05158743  0.77021661  0.52395103    -0.82700
H528        H  0.09436898  0.80163227  0.54233817     0.13100
C529        C  0.10680284  0.85394963  0.52912184     0.02400
N530        N  0.06351078  0.88260864  0.48304409    -0.81200
H531        H  0.02060553  0.85151489  0.46380650     0.17900
C532        C  0.12377124  0.86516551  0.49561140    -0.26100
C533        C  0.14777899  0.87882297  0.50770170     0.35900
C534        C  0.15499290  0.88110400  0.55434623    -0.20100
C535        C  0.13790243  0.86975624  0.58773242    -0.25400
C536        C  0.11390492  0.85629336  0.57563845     0.27300
H537        H  0.11815998  0.86330722  0.45989013     0.13100
N538        N  0.16454547  0.89067324  0.47289320    -0.82600
H539        H  0.14335791  0.87125227  0.62357315     0.17900
N540        N  0.09659305  0.84515208  0.61039208    -0.81200
H541        H  0.15645164  0.88697110  0.44039925     0.33500
H542        H  0.16421673  0.91167561  0.47743979     0.38000
H543        H  0.10481121  0.84840778  0.64292449     0.33500
H544        H  0.07830865  0.85574728  0.60919410     0.30200
H545        H  0.04633738  0.89005087  0.46628807     0.33500
H546        H  0.06480157  0.89281656  0.51427662     0.30200
H547        H  0.05268806  0.75936507  0.49335354     0.38100
H548        H  0.06792081  0.76362482  0.54385385     0.33600
C549        C  0.87809334  0.88728965  0.03727026    -0.20200
C550        C  0.88062175  0.87610913  0.99292263     0.36000
C551        C  0.90455925  0.86237914  0.98104913    -0.26200
C552        C  0.92610030  0.86005726  0.01210557     0.02500
C553        C  0.92411215  0.87198627  0.05555872     0.27300
C554        C  0.90030497  0.88559373  0.06755743    -0.25300
N555        N  0.85889018  0.87826074  0.96036725    -0.82700
H556        H  0.90644814  0.85332098  0.94748453     0.13100
C557        C  0.95056509  0.84462756  0.99928501     0.02400
N558        N  0.94610225  0.86970234  0.08767237    -0.81200
H559        H  0.89889864  0.89420757  0.10150659     0.17900
C560        C  0.97466952  0.85859568  0.99074347    -0.26100
C561        C  0.99855833  0.84461703  0.98041971     0.35900
C562        C  0.99851943  0.81589511  0.97886675    -0.20100
C563        C  0.97410063  0.80204670  0.98711538    -0.25400
C564        C  0.95019531  0.81612169  0.99754088     0.27300
H565        H  0.97495225  0.88054200  0.99226586     0.13100
N566        N  0.02268515  0.85982495  0.97149952    -0.82600
H567        H  0.97366842  0.78011150  0.98612812     0.17900
N568        N  0.92560595  0.80161134  0.00701383    -0.81200
H569        H  0.01889155  0.87283502  0.94393759     0.33500
H570        H  0.02694831  0.87169540  0.00022470     0.38000
H571        H  0.92865670  0.78072829  0.00408443     0.33500
H572        H  0.92054329  0.80524643  0.04115413     0.30200
H573        H  0.94150781  0.87972083  0.11814288     0.33500
H574        H  0.94826371  0.84919399  0.09597052     0.30200
H575        H  0.85685759  0.89875808  0.95188661     0.38100
H576        H  0.86376750  0.86822638  0.93004150     0.33600
C577        C  0.15168372  0.78605940  0.87748687    -0.20200
C578        C  0.17559329  0.79961118  0.89130227     0.36000
C579        C  0.19351448  0.80950608  0.85780773    -0.26200
C580        C  0.18720386  0.80788749  0.81094928     0.02500
C581        C  0.16433878  0.79275024  0.79719253     0.27300
C582        C  0.14730868  0.78145523  0.83057672    -0.25300
N583        N  0.18071327  0.80512559  0.93883475    -0.82700
H584        H  0.21133285  0.82070332  0.86834732     0.13100
C585        C  0.20162670  0.82579512  0.77770120     0.02400
N586        N  0.15744168  0.79035364  0.74952522    -0.81200
H587        H  0.12935923  0.77062793  0.81970543     0.17900
C588        C  0.21158718  0.81534305  0.73628778    -0.26100
C589        C  0.22039664  0.83267742  0.70076826     0.35900
C590        C  0.21964563  0.86107343  0.70723448    -0.20100
C591        C  0.21230187  0.87110840  0.75048777    -0.25400
C592        C  0.20267418  0.85403799  0.78511574     0.27300
H593        H  0.21136855  0.79362705  0.73095204     0.13100
N594        N  0.22921359  0.82153423  0.65798576    -0.82600
H595        H  0.21216240  0.89274541  0.75658562     0.17900
N596        N  0.19238551  0.86556486  0.82675034    -0.81200
H597        H  0.22796708  0.80037777  0.65860188     0.33500
H598        H  0.24968259  0.82636030  0.65427841     0.38000
H599        H  0.19494360  0.88660089  0.82705399     0.33500
H600        H  0.17153918  0.86201472  0.82752299     0.30200
H601        H  0.14017988  0.77834781  0.74523695     0.33500
H602        H  0.15243724  0.80968211  0.73748441     0.30200
H603        H  0.16630008  0.81919966  0.94961723     0.38100
H604        H  0.19952281  0.81451723  0.94306109     0.33600
C605        C  0.99201343  0.74844092  0.33845641    -0.20200
C606        C  0.98087239  0.75993349  0.29844623     0.36000
C607        C  0.99422019  0.75672786  0.25652371    -0.26200
C608        C  0.01864115  0.74238764  0.25355783     0.02500
C609        C  0.02949006  0.73021561  0.29336554     0.27300
C610        C  0.01594426  0.73324866  0.33553626    -0.25300
N611        N  0.95629170  0.77538956  0.30086421    -0.82700
H612        H  0.98589946  0.76612002  0.22603209     0.13100
C613        C  0.03248059  0.74123615  0.20833694     0.02400
N614        N  0.05436370  0.71528988  0.29091694    -0.81200
H615        H  0.02470354  0.72484232  0.36648573     0.17900
C616        C  0.05810484  0.75318294  0.20262133    -0.26100
C617        C  0.06953173  0.75650959  0.15866707     0.35900
C618        C  0.05497560  0.74762958  0.11976276    -0.20100
C619        C  0.02999645  0.73446246  0.12611342    -0.25400
C620        C  0.01875587  0.73101507  0.16975650     0.27300
H621        H  0.06861187  0.76110145  0.23230691     0.13100
N622        N  0.09522883  0.76977088  0.15343832    -0.82600
H623        H  0.01895590  0.72696600  0.09665752     0.17900
N624        N  0.99312501  0.71758537  0.17509032    -0.81200
H625        H  0.10333875  0.77481661  0.18538007     0.33500
H626        H  0.09183489  0.78804267  0.13617875     0.38000
H627        H  0.98548663  0.71143853  0.14337251     0.33500
H628        H  0.99648244  0.69994874  0.19416859     0.30200
H629        H  0.05972991  0.70783974  0.32320215     0.33500
H630        H  0.05094159  0.69842729  0.27008842     0.30200
H631        H  0.94087511  0.76216036  0.31091418     0.38100
H632        H  0.95088604  0.78277111  0.26854868     0.33600
C633        C  0.03625297  0.74529958  0.83420034    -0.20200
C634        C  0.04180941  0.76230709  0.79627116     0.36000
C635        C  0.02646034  0.75973913  0.75619177    -0.26200
C636        C  0.00594152  0.74035346  0.75273911     0.02500
C637        C  0.00151314  0.72205796  0.78908587     0.27300
C638        C  0.01684537  0.72464448  0.82969219    -0.25300
N639        N  0.06265250  0.78261540  0.79905304    -0.82700
H640        H  0.03018621  0.77325146  0.72758708     0.13100
C641        C  0.98964944  0.73995851  0.71020454     0.02400
N642        N  0.98109732  0.70146448  0.78496760    -0.81200
H643        H  0.01253863  0.71161655  0.85865877     0.17900
C644        C  0.99733463  0.72257321  0.67490423    -0.26100
C645        C  0.98641850  0.72552040  0.63077644     0.35900
C646        C  0.96749338  0.74634624  0.62187487    -0.20100
C647        C  0.95833684  0.76251000  0.65803587    -0.25400
C648        C  0.96946307  0.75962394  0.70224339     0.27300
H649        H  0.01286942  0.70755287  0.68130123     0.13100
N650        N  0.99502479  0.70794213  0.59448439    -0.82600
H651        H  0.94377305  0.77840950  0.65119568     0.17900
N652        N  0.96141550  0.77739657  0.73859824    -0.81200
H653        H  0.00918169  0.69389645  0.60651740     0.33500
H654        H  0.97814759  0.69682094  0.58376044     0.38000
H655        H  0.94664012  0.79096202  0.72710693     0.33500
H656        H  0.95238801  0.76549073  0.76394906     0.30200
H657        H  0.98041105  0.68962882  0.81466186     0.33500
H658        H  0.96238431  0.71118047  0.78228878     0.30200
H659        H  0.08108182  0.77251813  0.80286238     0.38100
H660        H  0.06388723  0.79365193  0.76854931     0.33600
C661        C  0.11756422  0.85040473  0.01804954    -0.20200
C662        C  0.12543999  0.85535458  0.06389820     0.36000
C663        C  0.13723819  0.88042320  0.07527091    -0.26200
C664        C  0.14177296  0.90023305  0.04179160     0.02500
C665        C  0.13347792  0.89576528  0.99650276     0.27300
C666        C  0.12133812  0.87102944  0.98511655    -0.25300
N667        N  0.12191902  0.83498857  0.09860163    -0.82700
H668        H  0.14379735  0.88423343  0.11007969     0.13100
C669        C  0.15678876  0.92498877  0.05385286     0.02400
N670        N  0.13802781  0.91617100  0.96212888    -0.81200
H671        H  0.11535554  0.86773485  0.94988804     0.17900
C672        C  0.18441734  0.92634721  0.04386993    -0.26100
C673        C  0.19956554  0.94962406  0.05417658     0.35900
C674        C  0.18666322  0.97188244  0.07524672    -0.20100
C675        C  0.15880493  0.97043744  0.08466024    -0.25400
C676        C  0.14373025  0.94716625  0.07409526     0.27300
H677        H  0.19410767  0.90917636  0.02773048     0.13100
N678        N  0.22780750  0.95079152  0.04278425    -0.82600
H679        H  0.14877602  0.98739763  0.10080536     0.17900
N680        N  0.11530491  0.94584275  0.08401801    -0.81200
H681        H  0.23413253  0.93255775  0.02818045     0.33500
H682        H  0.23015233  0.96569175  0.01761829     0.38000
H683        H  0.10883820  0.96379615  0.09942058     0.33500
H684        H  0.10496039  0.94439302  0.05287583     0.30200
H685        H  0.13111034  0.90956191  0.93020491     0.33500
H686        H  0.12639592  0.93307885  0.97068015     0.30200
H687        H  0.13556835  0.81938097  0.09173128     0.38100
H688        H  0.12728616  0.84258631  0.13074904     0.33600
C689        C  0.15228817  0.09783573  0.05364708    -0.20200
C690        C  0.12623729  0.08917779  0.06726846     0.36000
C691        C  0.10345249  0.10499137  0.05586202    -0.26200
C692        C  0.10608169  0.12935794  0.03135502     0.02500
C693        C  0.13199717  0.13790183  0.01736711     0.27300
C694        C  0.15479444  0.12202194  0.02845841    -0.25300
N695        N  0.12298622  0.06429886  0.09238192    -0.82700
H696        H  0.08348193  0.09833066  0.06615531     0.13100
C697        C  0.08134495  0.14503751  0.01883848     0.02400
N698        N  0.13503185  0.16269217  0.99197964    -0.81200
H699        H  0.17471704  0.12893240  0.01838729     0.17900
C700        C  0.07643574  0.17047003  0.03860521    -0.26100
C701        C  0.05280311  0.18539505  0.02806366     0.35900
C702        C  0.03378141  0.17477810  0.99633511    -0.20100
C703        C  0.03915360  0.14932728  0.97645152    -0.25400
C704        C  0.06260010  0.13450230  0.98722801     0.27300
H705        H  0.09097173  0.17852231  0.06285115     0.13100
N706        N  0.04840662  0.21130304  0.04910736    -0.82600
H707        H  0.02494876  0.14077561  0.95216178     0.17900
N708        N  0.06760050  0.10877504  0.96588889    -0.81200
H709        H  0.06505063  0.21678489  0.06922608     0.33500
H710        H  0.03214019  0.20917634  0.07159747     0.38000
H711        H  0.05184147  0.10373422  0.94352536     0.33500
H712        H  0.08498096  0.11081769  0.94589825     0.30200
H713        H  0.15540240  0.16626820  0.98459222     0.33500
H714        H  0.12516088  0.16019373  0.96058421     0.30200
H715        H  0.12906203  0.04845407  0.07108976     0.38100
H716        H  0.10260660  0.06089815  0.09993355     0.33600
C717        C  0.25452530  0.03648525  0.94860154    -0.20200
C718        C  0.25387947  0.05528323  0.91201283     0.36000
C719        C  0.25701252  0.04585144  0.86677503    -0.26200
C720        C  0.26097586  0.01818379  0.85752940     0.02500
C721        C  0.26252354  0.99963782  0.89397531     0.27300
C722        C  0.25970117  0.00898405  0.93881621    -0.25300
N723        N  0.24925607  0.08356294  0.92047481    -0.82700
H724        H  0.25561565  0.05997360  0.83842370     0.13100
C725        C  0.25961722  0.00804371  0.80986388     0.02400
N726        N  0.26584500  0.97114930  0.88520584    -0.81200
H727        H  0.26085316  0.99427609  0.96629332     0.17900
C728        C  0.28138819  0.99351211  0.79109503    -0.26100
C729        C  0.27870765  0.97977576  0.74898321     0.35900
C730        C  0.25386815  0.98106421  0.72516252    -0.20100
C731        C  0.23270420  0.99676750  0.74332769    -0.25400
C732        C  0.23512593  0.00980081  0.78552798     0.27300
H733        H  0.30008964  0.99198276  0.81033859     0.13100
N734        N  0.30065924  0.96390404  0.73140514    -0.82600
H735        H  0.21362581  0.99824535  0.72516079     0.17900
N736        N  0.21237198  0.02387513  0.80471399    -0.81200
H737        H  0.31753363  0.96536574  0.75291394     0.33500
H738        H  0.29461634  0.94359208  0.73199660     0.38000
H739        H  0.19585317  0.02341325  0.78230568     0.33500
H740        H  0.20642042  0.01337319  0.83413068     0.30200
H741        H  0.26676566  0.96019223  0.91583430     0.33500
H742        H  0.24856573  0.96439288  0.86792556     0.30200
H743        H  0.26624417  0.09106170  0.93769013     0.38100
H744        H  0.24806603  0.09429546  0.88964797     0.33600
C745        C  0.25413710  0.99869685  0.22453121    -0.20200
C746        C  0.27415989  0.00659626  0.25635734     0.36000
C747        C  0.27581990  0.99298564  0.29889009    -0.26200
C748        C  0.25801172  0.97165810  0.30953910     0.02500
C749        C  0.23925617  0.96277444  0.27660534     0.27300
C750        C  0.23755394  0.97630474  0.23451710    -0.25300
N751        N  0.29131792  0.02942857  0.24683099    -0.82700
H752        H  0.29006399  0.99984510  0.32463048     0.13100
C753        C  0.25597895  0.96144958  0.35711922     0.02400
N754        N  0.22104554  0.94090058  0.28712000    -0.81200
H755        H  0.22237891  0.96998044  0.20989328     0.17900
C756        C  0.23513735  0.97158918  0.38443522    -0.26100
C757        C  0.23149424  0.96237028  0.42938959     0.35900
C758        C  0.24919353  0.94259884  0.44759319    -0.20100
C759        C  0.26956649  0.93173578  0.41977027    -0.25400
C760        C  0.27314738  0.94105712  0.37448076     0.27300
H761        H  0.22166488  0.98684998  0.37048946     0.13100
N762        N  0.20996443  0.97313185  0.45687855    -0.82600
H763        H  0.28325324  0.91674427  0.43389991     0.17900
N764        N  0.29428978  0.93026365  0.34633739    -0.81200
H765        H  0.19892707  0.98764365  0.43859903     0.33500
H766        H  0.19663091  0.95723441  0.46409506     0.38000
H767        H  0.30528307  0.91560330  0.36433747     0.33500
H768        H  0.28513289  0.92032623  0.31878277     0.30200
H769        H  0.20806116  0.93713653  0.25954621     0.33500
H770        H  0.23265787  0.92341040  0.29167076     0.30200
H771        H  0.30380511  0.02412418  0.21950412     0.38100
H772        H  0.30411599  0.03326696  0.27461560     0.33600
C773        C  0.98923812  0.16864762  0.49855376    -0.20200
C774        C  0.96671475  0.18234499  0.51739966     0.36000
C775        C  0.94325391  0.16776686  0.52808873    -0.26200
C776        C  0.94159414  0.13978540  0.52034551     0.02500
C777        C  0.96394009  0.12592549  0.50226588     0.27300
C778        C  0.98745990  0.14047145  0.49141909    -0.25300
N779        N  0.96716719  0.21076560  0.52721138    -0.82700
H780        H  0.92612688  0.17834712  0.54260762     0.13100
C781        C  0.91661260  0.12504221  0.53277037     0.02400
N782        N  0.96270988  0.09709708  0.49547389    -0.81200
H783        H  0.00449047  0.12964408  0.47713341     0.17900
C784        C  0.90029624  0.11385834  0.49828898    -0.26100
C785        C  0.87630612  0.09987449  0.50909177     0.35900
C786        C  0.86859607  0.09713293  0.55542513    -0.20100
C787        C  0.88535109  0.10806932  0.58975554    -0.25400
C788        C  0.90925056  0.12194115  0.57889689     0.27300
H789        H  0.90630115  0.11616780  0.46287032     0.13100
N790        N  0.85995160  0.08839758  0.47329947    -0.82600
H791        H  0.87958678  0.10618346  0.62535206     0.17900
N792        N  0.92611887  0.13294718  0.61447499    -0.81200
H793        H  0.86833393  0.09252903  0.44123717     0.33500
H794        H  0.86029987  0.06733756  0.47731480     0.38000
H795        H  0.91771740  0.12914100  0.64666720     0.33500
H796        H  0.94457490  0.12268401  0.61359577     0.30200
H797        H  0.98085362  0.08996994  0.48173158     0.33500
H798        H  0.96070748  0.08800133  0.52761902     0.30200
H799        H  0.98359604  0.21486124  0.54863294     0.38100
H800        H  0.96936141  0.22151031  0.49653771     0.33600
C801        C  0.05839396  0.23734763  0.62001866    -0.20200
C802        C  0.03851112  0.25651873  0.63199461     0.36000
C803        C  0.02882605  0.25739959  0.67692176    -0.26200
C804        C  0.03861675  0.23928267  0.70994879     0.02500
C805        C  0.05993668  0.22147672  0.69888421     0.27300
C806        C  0.06978282  0.22081110  0.65391002    -0.25300
N807        N  0.02767505  0.27465779  0.59827402    -0.82700
H808        H  0.01253379  0.27116694  0.68532861     0.13100
C809        C  0.02393289  0.23631621  0.75362337     0.02400
N810        N  0.07055403  0.20330424  0.73297231    -0.81200
H811        H  0.08509058  0.20614034  0.64464667     0.17900
C812        C  0.01157271  0.21137879  0.76273965    -0.26100
C813        C  0.99769522  0.20684697  0.80360999     0.35900
C814        C  0.99544300  0.22811033  0.83577854    -0.20100
C815        C  0.00755740  0.25328780  0.82643553    -0.25400
C816        C  0.02175238  0.25764160  0.78537725     0.27300
H817        H  0.01310439  0.19518551  0.73789175     0.13100
N818        N  0.98661001  0.18043936  0.81305056    -0.82600
H819        H  0.00592864  0.26952421  0.85115138     0.17900
N820        N  0.03407796  0.28343137  0.77590490    -0.81200
H821        H  0.98964108  0.16734411  0.78547797     0.33500
H822        H  0.99739143  0.17228514  0.84065952     0.38000
H823        H  0.03052881  0.29695609  0.80268358     0.33500
H824        H  0.05499262  0.28047214  0.77455722     0.30200
H825        H  0.08586618  0.19125854  0.71920954     0.33500
H826        H  0.07951063  0.21510327  0.75853869     0.30200
H827        H  0.00676374  0.27151946  0.59637750     0.38100
H828        H  0.03100533  0.29447284  0.60946504     0.33600
C829        C  0.02167130  0.22775802  0.34222308    -0.20200
C830        C  0.99583871  0.21632920  0.33477563     0.36000
C831        C  0.98404132  0.21762455  0.29110276    -0.26200
C832        C  0.99761017  0.22975678  0.25432196     0.02500
C833        C  0.02306427  0.24214900  0.26211689     0.27300
C834        C  0.03473266  0.24126070  0.30626202    -0.25300
N835        N  0.98189483  0.20298774  0.37163416    -0.82700
H836        H  0.96426984  0.20871464  0.28547770     0.13100
C837        C  0.98490227  0.22883755  0.20795429     0.02400
N838        N  0.03735659  0.25470956  0.22492130    -0.81200
H839        H  0.05467352  0.24975564  0.31199054     0.17900
C840        C  0.98026765  0.25305106  0.18401585    -0.26100
C841        C  0.96834527  0.25298035  0.14025571     0.35900
C842        C  0.96059842  0.22811653  0.11998485    -0.20100
C843        C  0.96444574  0.20394993  0.14451314    -0.25400
C844        C  0.97686995  0.20399410  0.18795420     0.27300
H845        H  0.98595456  0.27212597  0.19963121     0.13100
N846        N  0.96410766  0.27809972  0.11627439    -0.82600
H847        H  0.95897866  0.18484254  0.12877092     0.17900
N848        N  0.98207008  0.17884316  0.21129414    -0.81200
H849        H  0.97115074  0.29447095  0.13560488     0.33500
H850        H  0.94324269  0.28072587  0.11249845     0.38000
H851        H  0.97496852  0.16246035  0.19205187     0.33500
H852        H  0.00304218  0.17659573  0.21383732     0.30200
H853        H  0.05571649  0.26282132  0.23632561     0.33500
H854        H  0.04212165  0.23955060  0.20136968     0.30200
H855        H  0.97770581  0.21758358  0.39648255     0.38100
H856        H  0.96325543  0.19540070  0.36051224     0.33600
C857        C  0.13616897  0.18293257  0.37101757    -0.20200
C858        C  0.16382903  0.18977441  0.37293300     0.36000
C859        C  0.18135380  0.18031111  0.33876074    -0.26200
C860        C  0.17157306  0.16399668  0.30314634     0.02500
C861        C  0.14399478  0.15702361  0.30123380     0.27300
C862        C  0.12657357  0.16684737  0.33477183    -0.25300
N863        N  0.17418053  0.20617994  0.40933432    -0.82700
H864        H  0.20271578  0.18512072  0.34061101     0.13100
C865        C  0.19044576  0.15113426  0.27111871     0.02400
N866        N  0.13410561  0.13872169  0.26671092    -0.81200
H867        H  0.10547141  0.16094027  0.33344367     0.17900
C868        C  0.20169961  0.12632146  0.28399494    -0.26100
C869        C  0.21396856  0.10954533  0.25162504     0.35900
C870        C  0.21441365  0.11770117  0.20504585    -0.20100
C871        C  0.20564829  0.14391498  0.19330073    -0.25400
C872        C  0.19350292  0.16074422  0.22605218     0.27300
H873        H  0.19941253  0.11931732  0.31895775     0.13100
N874        N  0.22465691  0.08369343  0.26557271    -0.82600
H875        H  0.20640432  0.15053931  0.15796918     0.17900
N876        N  0.18353381  0.18710848  0.21351467    -0.81200
H877        H  0.22207805  0.08063981  0.30070231     0.33500
H878        H  0.24549916  0.08407070  0.25971609     0.38000
H879        H  0.18767972  0.19120959  0.17913458     0.33500
H880        H  0.16249976  0.18697544  0.21665495     0.30200
H881        H  0.11354548  0.13466145  0.27144340     0.33500
H882        H  0.13573102  0.14838635  0.23500801     0.30200
H883        H  0.18927673  0.19518664  0.42623405     0.38100
H884        H  0.18312795  0.22339106  0.39490448     0.33600
C885        C  0.18516369  0.00768083  0.58053303    -0.20200
C886        C  0.19739125  0.03147337  0.56284711     0.36000
C887        C  0.18175249  0.05503252  0.55660793    -0.26200
C888        C  0.15410015  0.05545174  0.56712654     0.02500
C889        C  0.14181477  0.03180436  0.58464417     0.27300
C890        C  0.15738481  0.00818156  0.59090541    -0.25300
N891        N  0.22553076  0.03162581  0.55061826    -0.82700
H892        H  0.19105751  0.07308640  0.54247380     0.13100
C893        C  0.13806651  0.08037524  0.55710893     0.02400
N894        N  0.11361973  0.03199211  0.59645283    -0.81200
H895        H  0.14782921  0.99021705  0.60485067     0.17900
C896        C  0.11670782  0.07896584  0.52554099    -0.26100
C897        C  0.10252728  0.10233795  0.51186255     0.35900
C898        C  0.11007803  0.12793341  0.52971938    -0.20100
C899        C  0.13064799  0.12911232  0.56301577    -0.25400
C900        C  0.14470748  0.10561518  0.57685096     0.27300
H901        H  0.11152313  0.05956067  0.51059091     0.13100
N902        N  0.08069885  0.10015160  0.47944506    -0.82600
H903        H  0.13649069  0.14856010  0.57707032     0.17900
N904        N  0.16597962  0.10730682  0.61035414    -0.81200
H905        H  0.07795556  0.08002563  0.46931943     0.33500
H906        H  0.06295374  0.10592674  0.49613631     0.38000
H907        H  0.16849567  0.12729810  0.62136755     0.33500
H908        H  0.15990356  0.09607824  0.63891468     0.30200
H909        H  0.10762259  0.01302819  0.60885309     0.33500
H910        H  0.11114226  0.04571849  0.62329844     0.28600
H911        H  0.22791487  0.01833929  0.52310631     0.38100
H912        H  0.23141548  0.05077561  0.53892879     0.33600
C913        C  0.20711135  0.58312651  0.07097541    -0.20200
C914        C  0.18736388  0.57390380  0.03966004     0.36000
C915        C  0.16556622  0.59103485  0.02740476    -0.26200
C916        C  0.16280426  0.61690520  0.04687490     0.02500
C917        C  0.18118886  0.62500704  0.08129073     0.27300
C918        C  0.20326731  0.60819427  0.09258895    -0.25300
N919        N  0.19058122  0.54798835  0.01812546    -0.82700
H920        H  0.15138642  0.58472293  0.00117161     0.13100
C921        C  0.14317168  0.63691186  0.02733578     0.02400
N922        N  0.17813917  0.65094444  0.10295762    -0.81200
H923        H  0.21854573  0.61545317  0.11625761     0.17900
C924        C  0.12042024  0.64485906  0.05262048    -0.26100
C925        C  0.10456810  0.66724018  0.03892492     0.35900
C926        C  0.11161450  0.68222409  0.99948769    -0.20100
C927        C  0.13356082  0.67340141  0.97304226    -0.25400
C928        C  0.14925027  0.65083249  0.98632602     0.27300
H929        H  0.11568869  0.63443053  0.08426798     0.13100
N930        N  0.08247293  0.67581753  0.06691278    -0.82600
H931        H  0.13916498  0.68487771  0.94286373     0.17900
N932        N  0.17205563  0.64267187  0.95929820    -0.81200
H933        H  0.08996786  0.67997982  0.09963327     0.33500
H934        H  0.06882590  0.65968809  0.06958785     0.38000
H935        H  0.17367133  0.65477513  0.93002740     0.33500
H936        H  0.18954047  0.64611015  0.97865813     0.30200
H937        H  0.19313007  0.65379072  0.12779348     0.33500
H938        H  0.18113617  0.66590677  0.07808601     0.30200
H939        H  0.18922668  0.53319235  0.04366868     0.38100
H940        H  0.17467209  0.54434368  0.99528666     0.33600
C941        C  0.41370309  0.80025415  0.48196025    -0.20200
C942        C  0.42439118  0.81697493  0.51704807     0.36000
C943        C  0.40851575  0.83832266  0.53486625    -0.26200
C944        C  0.38248306  0.84365452  0.51776430     0.02500
C945        C  0.37266198  0.82828497  0.48065927     0.27300
C946        C  0.38834063  0.80693588  0.46310614    -0.25300
N947        N  0.45047444  0.81120965  0.53655046    -0.82700
H948        H  0.41601858  0.85018434  0.56335863     0.13100
C949        C  0.36411439  0.86292230  0.54177277     0.02400
N950        N  0.34620517  0.83368522  0.46222732    -0.81200
H951        H  0.37999551  0.79443278  0.43608912     0.17900
C952        C  0.35921473  0.88878916  0.52342245    -0.26100
C953        C  0.33785519  0.90503680  0.53977208     0.35900
C954        C  0.32076612  0.89519697  0.57483298    -0.20100
C955        C  0.32719789  0.87018540  0.59544214    -0.25400
C956        C  0.34855734  0.85398212  0.57926113     0.27300
H957        H  0.37113460  0.89582890  0.49470309     0.13100
N958        N  0.33263456  0.93071663  0.51863609    -0.82600
H959        H  0.31449085  0.86247426  0.62266803     0.17900
N960        N  0.35372688  0.82787344  0.59941132    -0.81200
H961        H  0.32930146  0.92750834  0.48372014     0.33500
H962        H  0.34998257  0.94267475  0.52214456     0.38000
H963        H  0.34071508  0.82437207  0.62692813     0.33500
H964        H  0.34922380  0.81313513  0.57490170     0.30200
H965        H  0.34201278  0.82078304  0.43477626     0.33500
H966        H  0.33204439  0.82913602  0.48759842     0.30200
H967        H  0.46490662  0.81497854  0.51126310     0.38100
H968        H  0.45477085  0.82456711  0.56332598     0.33600
C969        C  0.30922737  0.62125317  0.18470543    -0.20200
C970        C  0.31690599  0.61256381  0.22897479     0.36000
C971        C  0.32423331  0.63151718  0.26236075    -0.26200
C972        C  0.32426877  0.65936869  0.25297781     0.02500
C973        C  0.31504857  0.66841362  0.20966700     0.27300
C974        C  0.30742639  0.64923677  0.17596814    -0.25300
N975        N  0.31800573  0.58428525  0.24000068    -0.82700
H976        H  0.33139170  0.62421651  0.29524138     0.13100
C977        C  0.33760584  0.67770763  0.28692523     0.02400
N978        N  0.31422269  0.69692387  0.19972481    -0.81200
H979        H  0.30157027  0.65610649  0.14213627     0.17900
C980        C  0.36072092  0.69217204  0.27362047    -0.26100
C981        C  0.37854216  0.70306444  0.30630532     0.35900
C982        C  0.37346593  0.69934378  0.35351597    -0.20100
C983        C  0.34868676  0.68775254  0.36667445    -0.25400
C984        C  0.33071221  0.67690319  0.33382918     0.27300
H985        H  0.36613123  0.69328385  0.23777099     0.13100
N986        N  0.40237094  0.71697701  0.29126879    -0.82600
H987        H  0.34419820  0.68534015  0.40270017     0.17900
N988        N  0.30612530  0.66382597  0.34795390    -0.81200
H989        H  0.39634569  0.73342282  0.27106938     0.33500
H990        H  0.41342830  0.70378509  0.27061217     0.38000
H991        H  0.30408155  0.66469464  0.38350942     0.33500
H992        H  0.29002160  0.67485516  0.33407326     0.30200
H993        H  0.30712477  0.70025073  0.16645330     0.33500
H994        H  0.30013900  0.70567719  0.22179085     0.30200
H995        H  0.33786201  0.57958904  0.24949539     0.38100
H996        H  0.30570154  0.58097234  0.26846870     0.33600
C997        C  0.11249370  0.29363476  0.48992255    -0.20200
C998        C  0.10225293  0.31321496  0.52085130     0.36000
C999        C  0.11905590  0.33465453  0.53567406    -0.26200
C1000       C  0.14575515  0.33700906  0.52030740     0.02500
C1001       C  0.15571783  0.31817505  0.48839807     0.27300
C1002       C  0.13902207  0.29682032  0.47343967    -0.25300
N1003       N  0.07555636  0.31033764  0.53956337    -0.82700
H1004       H  0.11163526  0.34906820  0.56053761     0.13100
C1005       C  0.16419597  0.35758571  0.54060794     0.02400
N1006       N  0.18327445  0.32005944  0.47312062    -0.81200
H1007       H  0.14720042  0.28188513  0.45018459     0.17900
C1008       C  0.18006437  0.35016339  0.57838706    -0.26100
C1009       C  0.20158998  0.36661978  0.59331227     0.35900
C1010       C  0.20760336  0.39089440  0.56948710    -0.20100
C1011       C  0.18994360  0.39958937  0.53461139    -0.25400
C1012       C  0.16833194  0.38304947  0.51976477     0.27300
H1013       H  0.17645579  0.33079124  0.59484173     0.13100
N1014       N  0.21812052  0.35820848  0.63133322    -0.82600
H1015       H  0.19424917  0.41826621  0.51646343     0.17900
N1016       N  0.15118336  0.39155282  0.48263883    -0.81200
H1017       H  0.21120491  0.33980307  0.64475385     0.33500
H1018       H  0.21590086  0.37264482  0.65715103     0.38000
H1019       H  0.15674233  0.41087840  0.47130697     0.33500
H1020       H  0.15435483  0.37839010  0.45522598     0.30200
H1021       H  0.18775911  0.30427204  0.45061061     0.33500
H1022       H  0.18525119  0.33804426  0.45446683     0.30200
H1023       H  0.06176397  0.31377297  0.51300357     0.38100
H1024       H  0.07189444  0.32528407  0.56404649     0.33600
C1025       C  0.33897641  0.50750839  0.55954347    -0.20200
C1026       C  0.36754117  0.50952996  0.55633691     0.36000
C1027       C  0.37955705  0.53499310  0.54784829    -0.26200
C1028       C  0.36373032  0.55824546  0.54119312     0.02500
C1029       C  0.33536113  0.55617255  0.54336876     0.27300
C1030       C  0.32335792  0.53099331  0.55257952    -0.25300
N1031       N  0.38430249  0.48592957  0.56147359    -0.82700
H1032       H  0.40134890  0.53662665  0.54515455     0.13100
C1033       C  0.37675930  0.58432425  0.52839604     0.02400
N1034       N  0.31882215  0.57975740  0.53615811    -0.81200
H1035       H  0.30151974  0.52986205  0.55454473     0.17900
C1036       C  0.37057627  0.59562016  0.48565276    -0.26100
C1037       C  0.38180226  0.62033377  0.47188057     0.35900
C1038       C  0.39988883  0.63419643  0.50104799    -0.20100
C1039       C  0.40587085  0.62319314  0.54427970    -0.25400
C1040       C  0.39452733  0.59821629  0.55820337     0.27300
H1041       H  0.35683250  0.58515049  0.46273370     0.13100
N1042       N  0.37428699  0.63161998  0.42844596    -0.82600
H1043       H  0.41975180  0.63380789  0.56673277     0.17900
N1044       N  0.40089816  0.58694001  0.60230632    -0.81200
H1045       H  0.35329021  0.63407052  0.42795299     0.33500
H1046       H  0.37937666  0.61769220  0.40300348     0.38000
H1047       H  0.41433044  0.59956564  0.61993460     0.33500
H1048       H  0.38303970  0.58643318  0.62134411     0.30200
H1049       H  0.29830609  0.57480417  0.53830047     0.33500
H1050       H  0.32286753  0.59330079  0.56278332     0.30200
H1051       H  0.38054704  0.47336755  0.53340235     0.38100
H1052       H  0.40477018  0.49118607  0.55979706     0.33600
C1053       C  0.27582846  0.43924017  0.43144987    -0.20200
C1054       C  0.25491854  0.43011060  0.40222835     0.36000
C1055       C  0.25299551  0.44070279  0.35721586    -0.26200
C1056       C  0.27169055  0.46004054  0.34112181     0.02500
C1057       C  0.29336516  0.46785161  0.36973518     0.27300
C1058       C  0.29499243  0.45765447  0.41449124    -0.25300
N1059       N  0.23487596  0.41153989  0.41914650    -0.82700
H1060       H  0.23641684  0.43459214  0.33521299     0.13100
C1061       C  0.26835949  0.47326806  0.29535874     0.02400
N1062       N  0.31346573  0.48656442  0.35332597    -0.81200
H1063       H  0.31113352  0.46456689  0.43680335     0.17900
C1064       C  0.26607820  0.50163132  0.29338108    -0.26100
C1065       C  0.26817392  0.51576178  0.25168383     0.35900
C1066       C  0.27274697  0.50131741  0.21089665    -0.20100
C1067       C  0.27241720  0.47279494  0.21217855    -0.25400
C1068       C  0.27043089  0.45860051  0.25411203     0.27300
H1069       H  0.26373875  0.51287415  0.32491711     0.13100
N1070       N  0.26606402  0.54479004  0.25063749    -0.82600
H1071       H  0.27544371  0.46159701  0.18077720     0.17900
N1072       N  0.27171876  0.42951160  0.25510425    -0.81200
H1073       H  0.26265323  0.55236682  0.28348246     0.33500
H1074       H  0.24901231  0.54972620  0.23109874     0.38000
H1075       H  0.27312599  0.42180660  0.22191399     0.33500
H1076       H  0.28955487  0.42404934  0.27205162     0.30200
H1077       H  0.32792251  0.49048560  0.37865573     0.33500
H1078       H  0.32364841  0.47719740  0.32637818     0.30200
H1079       H  0.24453720  0.39312422  0.42584497     0.38100
H1080       H  0.22034180  0.40762309  0.39394032     0.33600
C1081       C  0.27722161  0.54507992  0.92679330    -0.20200
C1082       C  0.25213259  0.53700464  0.90770093     0.36000
C1083       C  0.25114724  0.52639280  0.86313285    -0.26200
C1084       C  0.27464035  0.52353829  0.83689904     0.02500
C1085       C  0.29946247  0.53336935  0.85467123     0.27300
C1086       C  0.30042545  0.54426425  0.89929202    -0.25300
N1087       N  0.22772697  0.53924488  0.93397315    -0.82700
H1088       H  0.23197214  0.51970506  0.84906693     0.13100
C1089       C  0.27305561  0.50907870  0.79200505     0.02400
N1090       N  0.32379320  0.53122896  0.82816150    -0.81200
H1091       H  0.31965927  0.55053803  0.91363028     0.17900
C1092       C  0.28288564  0.52168722  0.75229202    -0.26100
C1093       C  0.28372157  0.50779095  0.71033069     0.35900
C1094       C  0.27406930  0.48088724  0.70769075    -0.20100
C1095       C  0.26289389  0.46870334  0.74658135    -0.25400
C1096       C  0.26251715  0.48240683  0.78887799     0.27300
H1097       H  0.29049984  0.54225057  0.75429864     0.13100
N1098       N  0.29510012  0.52056664  0.67051049    -0.82600
H1099       H  0.25598396  0.44788759  0.74459459     0.17900
N1100       N  0.25252799  0.46890901  0.82906799    -0.81200
H1101       H  0.30162954  0.54021014  0.67813142     0.33500
H1102       H  0.27965756  0.52247313  0.64620111     0.38000
H1103       H  0.24551058  0.44949626  0.82100753     0.33500
H1104       H  0.26881750  0.46636452  0.85156108     0.30200
H1105       H  0.34022068  0.53946451  0.84597075     0.33500
H1106       H  0.32791939  0.51062323  0.82382902     0.30200
H1107       H  0.22438335  0.55985425  0.93990719     0.38100
H1108       H  0.21108444  0.53218281  0.91531377     0.33600
C1109       C  0.41158067  0.18139045  0.97950894    -0.20200
C1110       C  0.38504758  0.17696464  0.96272189     0.36000
C1111       C  0.36919979  0.15600969  0.98139348    -0.26200
C1112       C  0.37934122  0.13906204  0.01590478     0.02500
C1113       C  0.40650919  0.14179570  0.02987735     0.27300
C1114       C  0.42244167  0.16288823  0.01138492    -0.25300
N1115       N  0.37396881  0.19433026  0.92783172    -0.82700
H1116       H  0.34843916  0.15346217  0.97017796     0.13100
C1117       C  0.36031849  0.12024675  0.03923688     0.02400
N1118       N  0.41757446  0.12359318  0.06350388    -0.81200
H1119       H  0.44278342  0.16596352  0.02425856     0.17900
C1120       C  0.35574878  0.09430870  0.02138793    -0.26100
C1121       C  0.33463695  0.07776412  0.03809213     0.35900
C1122       C  0.31759860  0.08757662  0.07329517    -0.20100
C1123       C  0.32337169  0.11301291  0.09269963    -0.25400
C1124       C  0.34444980  0.12942156  0.07600339     0.27300
H1125       H  0.36796325  0.08745486  0.99298371     0.13100
N1126       N  0.32935387  0.05196289  0.01714421    -0.82600
H1127       H  0.31049525  0.12073976  0.11958679     0.17900
N1128       N  0.34883225  0.15606050  0.09445595    -0.81200
H1129       H  0.34268888  0.04856143  0.99008762     0.33500
H1130       H  0.33345854  0.03700916  0.04158491     0.38000
H1131       H  0.33499525  0.16008760  0.12052874     0.33500
H1132       H  0.36799867  0.15629981  0.10961206     0.30200
H1133       H  0.43790561  0.12815105  0.06973426     0.33500
H1134       H  0.40734717  0.12678554  0.09424817     0.30200
H1135       H  0.38548171  0.19159288  0.89827079     0.38100
H1136       H  0.35419312  0.18853436  0.91964489     0.33600
C1137       C  0.31214225  0.35911735  0.68957975    -0.20200
C1138       C  0.31166246  0.33075238  0.68152061     0.36000
C1139       C  0.32134547  0.31290061  0.71563158    -0.26200
C1140       C  0.33097020  0.32273086  0.75761754     0.02500
C1141       C  0.32925401  0.35057317  0.76696327     0.27300
C1142       C  0.31966992  0.36837883  0.73336049    -0.25300
N1143       N  0.30196785  0.32007403  0.63880068    -0.82700
H1144       H  0.32254411  0.29137233  0.70872983     0.13100
C1145       C  0.34672635  0.30493443  0.78873577     0.02400
N1146       N  0.33886174  0.36106782  0.80970824    -0.81200
H1147       H  0.31966814  0.38984451  0.74104975     0.17900
C1148       C  0.37247921  0.29695962  0.77430535    -0.26100
C1149       C  0.39160466  0.28672448  0.80544386     0.35900
C1150       C  0.38490134  0.28477351  0.85248035    -0.20100
C1151       C  0.35813120  0.29015375  0.86582581    -0.25400
C1152       C  0.33897625  0.30013039  0.83456934     0.27300
H1153       H  0.37826045  0.30033758  0.73900355     0.13100
N1154       N  0.41804652  0.27930547  0.78956412    -0.82600
H1155       H  0.35228473  0.28795076  0.90133005     0.17900
N1156       N  0.31214260  0.30572206  0.85072518    -0.81200
H1157       H  0.41983878  0.28269642  0.75438109     0.33500
H1158       H  0.41995528  0.25842308  0.79448229     0.38000
H1159       H  0.31346579  0.32170002  0.87408952     0.33500
H1160       H  0.29944118  0.31199702  0.82418965     0.30200
H1161       H  0.35429129  0.37501652  0.80294688     0.33500
H1162       H  0.32295598  0.37142857  0.82529531     0.30200
H1163       H  0.31670668  0.32403591  0.61412071     0.38100
H1164       H  0.30028027  0.29897322  0.64062444     0.33600
C1165       C  0.33652295  0.46948029  0.05221698    -0.20200
C1166       C  0.36459886  0.46789843  0.06146040     0.36000
C1167       C  0.37906294  0.44427879  0.05063376    -0.26200
C1168       C  0.36617301  0.42204565  0.03035817     0.02500
C1169       C  0.33834551  0.42367906  0.01979136     0.27300
C1170       C  0.32379155  0.44740186  0.03071815    -0.25300
N1171       N  0.37867919  0.49046478  0.08110852    -0.82700
H1172       H  0.40053453  0.44331372  0.05801453     0.13100
C1173       C  0.38220990  0.39735439  0.01960485     0.02400
N1174       N  0.32491840  0.40102265  0.99882059    -0.81200
H1175       H  0.30232744  0.44840530  0.02338686     0.17900
C1176       C  0.38541465  0.37730635  0.05338123    -0.26100
C1177       C  0.39973125  0.35311282  0.04460291     0.35900
C1178       C  0.41087650  0.34868777  0.00065923    -0.20100
C1179       C  0.40823813  0.36934209  0.96750497    -0.25400
C1180       C  0.39419222  0.39343542  0.97628081     0.27300
H1181       H  0.37651652  0.38052543  0.08675219     0.13100
N1182       N  0.40267746  0.33308200  0.08004486    -0.82600
H1183       H  0.41675317  0.36665988  0.93371611     0.17900
N1184       N  0.39260597  0.41333943  0.94031283    -0.81200
H1185       H  0.39279257  0.33922861  0.10982057     0.33500
H1186       H  0.42324056  0.33190733  0.08825843     0.38000
H1187       H  0.38148432  0.40483551  0.91339871     0.33500
H1188       H  0.38226021  0.43067264  0.95049321     0.30200
H1189       H  0.30437713  0.40522342  0.99399297     0.33500
H1190       H  0.33318505  0.39845129  0.96627369     0.30200
H1191       H  0.39399573  0.49632092  0.05856782     0.38100
H1192       H  0.38777108  0.48398785  0.11156983     0.33600
C1193       C  0.81505159  0.39254232  0.05419459    -0.20200
C1194       C  0.82995792  0.40094859  0.01539730     0.36000
C1195       C  0.85114870  0.38462539  0.99849716    -0.26200
C1196       C  0.85780866  0.35990745  0.01960295     0.02500
C1197       C  0.84354857  0.35185770  0.05912159     0.27300
C1198       C  0.82244889  0.36818600  0.07595631    -0.25300
N1199       N  0.82262698  0.42519995  0.99138882    -0.82700
H1200       H  0.86184130  0.39085100  0.96792389     0.13100
C1201       C  0.87820600  0.34127319  0.99895441     0.02400
N1202       N  0.85012145  0.32666425  0.08132719    -0.81200
H1203       H  0.81100229  0.36132098  0.10533919     0.17900
C1204       C  0.90430550  0.33966231  0.01790276    -0.26100
C1205       C  0.92192193  0.31817580  0.00662136     0.35900
C1206       C  0.91317579  0.29781854  0.97612435    -0.20100
C1207       C  0.88786322  0.30055513  0.95470134    -0.25400
C1208       C  0.87035870  0.32214578  0.96557620     0.27300
H1209       H  0.91031370  0.35430319  0.04356974     0.13100
N1210       N  0.94779524  0.31574267  0.02873278    -0.82600
H1211       H  0.88097234  0.28474137  0.93176946     0.17900
N1212       N  0.84407385  0.32392429  0.94462512    -0.81200
H1213       H  0.95101446  0.33196063  0.05106250     0.33500
H1214       H  0.96260409  0.31718871  0.00340819     0.38000
H1215       H  0.84148999  0.30849433  0.92056058     0.33500
H1216       H  0.82962409  0.32061773  0.97007782     0.30200
H1217       H  0.83798850  0.32372320  0.11014593     0.33500
H1218       H  0.84544930  0.31097838  0.05865182     0.30200
H1219       H  0.83958275  0.43787940  0.99036268     0.38100
H1220       H  0.81758133  0.42000059  0.95778633     0.33600
C1221       C  0.65098186  0.38281022  0.03993324    -0.20200
C1222       C  0.62946454  0.37686885  0.07027782     0.36000
C1223       C  0.60789150  0.36061604  0.05566028    -0.26200
C1224       C  0.60711875  0.35016441  0.01131347     0.02500
C1225       C  0.62813512  0.35613789  0.98055048     0.27300
C1226       C  0.64988551  0.37242358  0.99511959    -0.25300
N1227       N  0.62940109  0.38697273  0.11618241    -0.82700
H1228       H  0.59148065  0.35625529  0.07906934     0.13100
C1229       C  0.58313325  0.33447007  0.99705051     0.02400
N1230       N  0.62724636  0.34563101  0.93475619    -0.81200
H1231       H  0.66619064  0.37668648  0.97150233     0.17900
C1232       C  0.56268091  0.34783559  0.97291353    -0.26100
C1233       C  0.53840556  0.33461958  0.96192656     0.35900
C1234       C  0.53441363  0.30741168  0.97600329    -0.20100
C1235       C  0.55539902  0.29379704  0.99908383    -0.25400
C1236       C  0.57976701  0.30714871  0.00984915     0.27300
H1237       H  0.56560513  0.36883242  0.96310427     0.13100
N1238       N  0.51794080  0.34872585  0.93620469    -0.82600
H1239       H  0.55258403  0.27289808  0.00951099     0.17900
N1240       N  0.60092323  0.29332330  0.03431412    -0.81200
H1241       H  0.52392054  0.36865721  0.92936221     0.33500
H1242       H  0.51611277  0.33908817  0.90452401     0.38000
H1243       H  0.59520413  0.27335639  0.04150857     0.33500
H1244       H  0.61768197  0.29222907  0.01269362     0.30200
H1245       H  0.64417718  0.35202057  0.91628559     0.33500
H1246       H  0.62841380  0.32451451  0.93698015     0.30200
H1247       H  0.61185504  0.39844346  0.12068448     0.38100
H1248       H  0.62858444  0.37042317  0.13855759     0.33600
C1249       C  0.70256466  0.08541261  0.56305427    -0.20200
C1250       C  0.69141132  0.10698495  0.58837647     0.36000
C1251       C  0.66962293  0.12188929  0.56998408    -0.26200
C1252       C  0.65888448  0.11574823  0.52669057     0.02500
C1253       C  0.66874958  0.09306635  0.50283503     0.27300
C1254       C  0.69035164  0.07795678  0.52141303    -0.25300
N1255       N  0.70281595  0.11415034  0.63200108    -0.82700
H1256       H  0.66186722  0.13923258  0.58840883     0.13100
C1257       C  0.63980581  0.13519523  0.50469559     0.02400
N1258       N  0.65746964  0.08619359  0.45900620    -0.81200
H1259       H  0.69886512  0.06144667  0.50180653     0.17900
C1260       C  0.64952112  0.15216776  0.46982632    -0.26100
C1261       C  0.63411912  0.17420663  0.45374277     0.35900
C1262       C  0.60815714  0.17892663  0.47187780    -0.20100
C1263       C  0.59764461  0.16076829  0.50439237    -0.25400
C1264       C  0.61333181  0.13901213  0.52123881     0.27300
H1265       H  0.66992287  0.14928088  0.45733728     0.13100
N1266       N  0.64548983  0.19311812  0.42160379    -0.82600
H1267       H  0.57810435  0.16493090  0.51949196     0.17900
N1268       N  0.60307238  0.12160899  0.55664686    -0.81200
H1269       H  0.66499905  0.18720282  0.41226205     0.33500
H1270       H  0.63366237  0.19243285  0.39192466     0.38000
H1271       H  0.58341874  0.12727318  0.56552649     0.33500
H1272       H  0.60177443  0.10203682  0.54318520     0.30200
H1273       H  0.66709345  0.06912344  0.44561068     0.33500
H1274       H  0.63725234  0.08079950  0.46413997     0.30200
H1275       H  0.69988046  0.09770771  0.65406704     0.38100
H1276       H  0.69241173  0.13052686  0.64616119     0.33600
C1277       C  0.49413858  0.30763109  0.48485452    -0.20200
C1278       C  0.49322799  0.33621759  0.48169179     0.36000
C1279       C  0.46911213  0.35005163  0.49075866    -0.26200
C1280       C  0.44559948  0.33607973  0.50332595     0.02500
C1281       C  0.44630726  0.30751401  0.50681198     0.27300
C1282       C  0.47061749  0.29356752  0.49769531    -0.25300
N1283       N  0.51692924  0.35144569  0.47007394    -0.82700
H1284       H  0.46877723  0.37196365  0.48809159     0.13100
C1285       C  0.42076567  0.35187357  0.51411174     0.02400
N1286       N  0.42239280  0.29283410  0.51974043    -0.81200
H1287       H  0.47107539  0.27165176  0.49982247     0.17900
C1288       C  0.39704843  0.34791559  0.48844934    -0.26100
C1289       C  0.37323516  0.36256547  0.49795171     0.35900
C1290       C  0.37304492  0.38134997  0.53458988    -0.20100
C1291       C  0.39715954  0.38569805  0.55924835    -0.25400
C1292       C  0.42087581  0.37122291  0.54950236     0.27300
H1293       H  0.39718603  0.33336979  0.46074524     0.13100
N1294       N  0.34924233  0.35783499  0.47122912    -0.82600
H1295       H  0.39744142  0.40013654  0.58709927     0.17900
N1296       N  0.44499914  0.37573757  0.57604197    -0.81200
H1297       H  0.35251661  0.34249874  0.44726257     0.33500
H1298       H  0.34540405  0.37546558  0.45240916     0.38000
H1299       H  0.44182424  0.39075260  0.60059490     0.33500
H1300       H  0.44923285  0.35784555  0.59391277     0.30200
H1301       H  0.42619804  0.27200336  0.52042531     0.33500
H1302       H  0.41755686  0.29844249  0.55319562     0.30200
H1303       H  0.52073944  0.36514512  0.49653601     0.38100
H1304       H  0.51272821  0.36264152  0.44047691     0.33600
C1305       C  0.56710828  0.24838065  0.61188711    -0.20200
C1306       C  0.56842912  0.27010079  0.64322278     0.36000
C1307       C  0.55695594  0.26701534  0.68709596    -0.26200
C1308       C  0.54481305  0.24249869  0.70089698     0.02500
C1309       C  0.54486404  0.22038526  0.67047232     0.27300
C1310       C  0.55575681  0.22362082  0.62643001    -0.25300
N1311       N  0.58015523  0.29556615  0.62987368    -0.82700
H1312       H  0.55687483  0.28409109  0.71031310     0.13100
C1313       C  0.53126569  0.24065653  0.74651071     0.02400
N1314       N  0.53363621  0.19475684  0.68428474    -0.81200
H1315       H  0.55501580  0.20667168  0.60295621     0.17900
C1316       C  0.50404504  0.23232514  0.74922200    -0.26100
C1317       C  0.48997079  0.23258877  0.79111406     0.35900
C1318       C  0.50316673  0.24190149  0.83078847    -0.20100
C1319       C  0.53054412  0.24931733  0.82848991    -0.25400
C1320       C  0.54486079  0.24832573  0.78701464     0.27300
H1321       H  0.49345298  0.22651569  0.71825886     0.13100
N1322       N  0.46196805  0.22494207  0.79304670    -0.82600
H1323       H  0.54057846  0.25666521  0.85908017     0.17900
N1324       N  0.57303480  0.25549407  0.78570254    -0.81200
H1325       H  0.45502957  0.21912141  0.76069791     0.33500
H1326       H  0.46050521  0.20785074  0.81409853     0.38000
H1327       H  0.57997103  0.26078152  0.81831420     0.33500
H1328       H  0.58378289  0.23821317  0.77603644     0.30200
H1329       H  0.53504507  0.18060888  0.65783460     0.33500
H1330       H  0.54545308  0.18736738  0.71127404     0.30200
H1331       H  0.60089290  0.29246649  0.62561114     0.38100
H1332       H  0.57823610  0.30980543  0.65610211     0.33600
C1333       C  0.52864059  0.25354296  0.32593005    -0.20200
C1334       C  0.52422116  0.27537891  0.29532923     0.36000
C1335       C  0.50934473  0.27109142  0.25502628    -0.26200
C1336       C  0.49831554  0.24565688  0.24466981     0.02500
C1337       C  0.50243509  0.22384402  0.27524750     0.27300
C1338       C  0.51745755  0.22804355  0.31573486    -0.25300
N1339       N  0.53430544  0.30203350  0.30570447    -0.82700
H1340       H  0.50641095  0.28773368  0.23126507     0.13100
C1341       C  0.48410273  0.24226070  0.20009280     0.02400
N1342       N  0.49130180  0.19761381  0.26509775    -0.81200
H1343       H  0.52055570  0.21134954  0.33931425     0.17900
C1344       C  0.49484154  0.22438213  0.16777588    -0.26100
C1345       C  0.48549492  0.22446321  0.12245067     0.35900
C1346       C  0.46504930  0.24275874  0.10884092    -0.20100
C1347       C  0.45267508  0.25902373  0.14198683    -0.25400
C1348       C  0.46208016  0.25900390  0.18758578     0.27300
H1349       H  0.51155704  0.21128410  0.17710918     0.13100
N1350       N  0.49717866  0.20623084  0.08999360    -0.82600
H1351       H  0.43674926  0.27285699  0.13177723     0.17900
N1352       N  0.45003850  0.27655863  0.22093599    -0.81200
H1353       H  0.49431627  0.18645325  0.10196892     0.33500
H1354       H  0.51798216  0.20997088  0.08872249     0.38000
H1355       H  0.43424202  0.28769194  0.20627407     0.33500
H1356       H  0.44142118  0.26428262  0.24619581     0.30200
H1357       H  0.49623865  0.18374836  0.29090254     0.33500
H1358       H  0.47024205  0.19943593  0.26509367     0.30200
H1359       H  0.52412170  0.30887699  0.33475617     0.38100
H1360       H  0.52963413  0.31564853  0.27938687     0.33600
C1361       C  0.64658868  0.28151840  0.35823865    -0.20200
C1362       C  0.63621625  0.28593513  0.31376841     0.36000
C1363       C  0.65307052  0.29651791  0.27949112    -0.26200
C1364       C  0.68030009  0.30269435  0.28831190     0.02500
C1365       C  0.69134222  0.29587244  0.33162304     0.27300
C1366       C  0.67432826  0.28535746  0.36626582    -0.25300
N1367       N  0.60806847  0.28105815  0.30436618    -0.82700
H1368       H  0.64438042  0.30167507  0.24653878     0.13100
C1369       C  0.69530442  0.31968521  0.25411239     0.02400
N1370       N  0.71950509  0.30067599  0.34075520    -0.81200
H1371       H  0.68231051  0.28203064  0.40037930     0.17900
C1372       C  0.70597717  0.34473593  0.26801298    -0.26100
C1373       C  0.71523904  0.36401787  0.23602137     0.35900
C1374       C  0.71333106  0.35849038  0.18851297    -0.20100
C1375       C  0.70452842  0.33258589  0.17482608    -0.25400
C1376       C  0.69563991  0.31315471  0.20704735     0.27300
H1377       H  0.70579328  0.34991522  0.30400271     0.13100
N1378       N  0.72580519  0.38952418  0.25176172    -0.82600
H1379       H  0.70333650  0.32786660  0.13870755     0.17900
N1380       N  0.68613132  0.28709409  0.19207603    -0.81200
H1381       H  0.72541845  0.39053983  0.28748184     0.33500
H1382       H  0.74614714  0.39046068  0.24224227     0.38000
H1383       H  0.68747673  0.28546862  0.15650747     0.33500
H1384       H  0.69910613  0.27246370  0.20585656     0.30200
H1385       H  0.72440856  0.29479692  0.37415422     0.33500
H1386       H  0.73060434  0.28820519  0.31891579     0.30200
H1387       H  0.60461802  0.26027034  0.30829581     0.38100
H1388       H  0.60340109  0.28578847  0.27036836     0.33600
C1389       C  0.80882774  0.59546013  0.56331776    -0.20200
C1390       C  0.83084721  0.58388722  0.53927885     0.36000
C1391       C  0.85240591  0.60063057  0.52468851    -0.26200
C1392       C  0.85238720  0.62853953  0.53362637     0.02500
C1393       C  0.83127464  0.63979236  0.55952417     0.27300
C1394       C  0.80990817  0.62321893  0.57423672    -0.25300
N1395       N  0.83072372  0.55559341  0.52776772    -0.82700
H1396       H  0.86883575  0.59209186  0.50501564     0.13100
C1397       C  0.87356025  0.64657946  0.51418155     0.02400
N1398       N  0.83123877  0.66832217  0.56948868    -0.81200
H1399       H  0.79341068  0.63238912  0.59291241     0.17900
C1400       C  0.86629533  0.66435916  0.47875523    -0.26100
C1401       C  0.88335694  0.68582785  0.46577267     0.35900
C1402       C  0.90823939  0.68966617  0.48884955    -0.20100
C1403       C  0.91658968  0.67033639  0.52139306    -0.25400
C1404       C  0.89932075  0.64891776  0.53460990     0.27300
H1405       H  0.84657399  0.66228880  0.46284358     0.13100
N1406       N  0.87503670  0.70444305  0.43051882    -0.82600
H1407       H  0.93565932  0.67314911  0.53912195     0.17900
N1408       N  0.90724304  0.63039696  0.57021446    -0.81200
H1409       H  0.85614787  0.69894851  0.41727096     0.33500
H1410       H  0.88885228  0.70283381  0.40366886     0.38000
H1411       H  0.92678864  0.63484622  0.58170865     0.33500
H1412       H  0.89434559  0.63342034  0.59800838     0.30200
H1413       H  0.81405556  0.67359828  0.58818795     0.33500
H1414       H  0.84791779  0.67232133  0.59049766     0.30200
H1415       H  0.83245672  0.54467462  0.55833052     0.38100
H1416       H  0.84771697  0.55068905  0.50829612     0.33600
C1417       C  0.61687132  0.34962870  0.50501305    -0.20200
C1418       C  0.60458920  0.36689947  0.53717404     0.36000
C1419       C  0.61800184  0.39056146  0.55086101    -0.26200
C1420       C  0.64342397  0.39737714  0.53277493     0.02500
C1421       C  0.65569755  0.38014988  0.50058049     0.27300
C1422       C  0.64241064  0.35631566  0.48744612    -0.25300
N1423       N  0.57908893  0.36044762  0.55753083    -0.82700
H1424       H  0.60862594  0.40366423  0.57590130     0.13100
C1425       C  0.65685648  0.42289762  0.54669910     0.02400
N1426       N  0.68144358  0.38711446  0.48099433    -0.81200
H1427       H  0.65186982  0.34300625  0.46277529     0.17900
C1428       C  0.68273395  0.42189548  0.56637489    -0.26100
C1429       C  0.69710889  0.44571835  0.57657752     0.35900
C1430       C  0.68493049  0.47119315  0.56785882    -0.20100
C1431       C  0.65869520  0.47197213  0.54905541    -0.25400
C1432       C  0.64466713  0.44814195  0.53802654     0.27300
H1433       H  0.69192809  0.40234946  0.57303003     0.13100
N1434       N  0.72375994  0.44394203  0.59617483    -0.82600
H1435       H  0.64917293  0.49131311  0.54210439     0.17900
N1436       N  0.61828721  0.44946320  0.51728869    -0.81200
H1437       H  0.72869126  0.42379826  0.60353602     0.33500
H1438       H  0.73746002  0.45028644  0.57115984     0.38000
H1439       H  0.61209980  0.46958997  0.51344913     0.33500
H1440       H  0.61980350  0.44142479  0.48433115     0.30200
H1441       H  0.68772556  0.37219815  0.45806204     0.33500
H1442       H  0.67884376  0.40489022  0.46191702     0.30200
H1443       H  0.58066647  0.34143987  0.57317984     0.38100
H1444       H  0.56459087  0.35923505  0.53160898     0.33600
C1445       C  0.64411143  0.59090500  0.52328442    -0.20200
C1446       C  0.64377247  0.60963226  0.48646423     0.36000
C1447       C  0.61945114  0.62285375  0.47491845    -0.26200
C1448       C  0.59547512  0.61761158  0.49888323     0.02500
C1449       C  0.59546595  0.59815586  0.53418314     0.27300
C1450       C  0.61968902  0.58494450  0.54584066    -0.25300
N1451       N  0.66820193  0.61617337  0.46228707    -0.82700
H1452       H  0.61922996  0.63771930  0.44756633     0.13100
C1453       C  0.57080289  0.63355117  0.48810321     0.02400
N1454       N  0.57104019  0.59256409  0.55905766    -0.81200
H1455       H  0.61964626  0.57053807  0.57387372     0.17900
C1456       C  0.54795290  0.62046583  0.47019464    -0.26100
C1457       C  0.52428207  0.63499497  0.45990468     0.35900
C1458       C  0.52326009  0.66326434  0.46779869    -0.20100
C1459       C  0.54625532  0.67624994  0.48585690    -0.25400
C1460       C  0.56990400  0.66166956  0.49636704     0.27300
H1461       H  0.54858011  0.59884925  0.46380822     0.13100
N1462       N  0.50161129  0.62096333  0.44054312    -0.82600
H1463       H  0.54569712  0.69783919  0.49241240     0.17900
N1464       N  0.59294966  0.67522032  0.51589693    -0.81200
H1465       H  0.49584074  0.60564645  0.46331077     0.33500
H1466       H  0.50786956  0.61181062  0.41016004     0.38000
H1467       H  0.58908647  0.69591553  0.51971932     0.33500
H1468       H  0.59589239  0.66739452  0.54881212     0.30200
H1469       H  0.57441147  0.57767741  0.58393934     0.33500
H1470       H  0.56569595  0.61021548  0.57653168     0.30200
H1471       H  0.67381623  0.59898888  0.44377868     0.38100
H1472       H  0.66467051  0.63143769  0.43812855     0.33600
C1473       C  0.75393470  0.48075646  0.21125738    -0.20200
C1474       C  0.77608145  0.47448367  0.23983332     0.36000
C1475       C  0.77891003  0.48810299  0.28200059    -0.26200
C1476       C  0.75988203  0.50757461  0.29601575     0.02500
C1477       C  0.73888830  0.51508781  0.26590301     0.27300
C1478       C  0.73630653  0.50177931  0.22381378    -0.25300
N1479       N  0.79471952  0.45351497  0.22716849    -0.82700
H1480       H  0.79510622  0.48248429  0.30519071     0.13100
C1481       C  0.75942300  0.51687657  0.34437611     0.02400
N1482       N  0.71941903  0.53520340  0.27915632    -0.81200
H1483       H  0.71959360  0.50704576  0.20141271     0.17900
C1484       C  0.76111281  0.54461183  0.35480975    -0.26100
C1485       C  0.75737417  0.55404219  0.39991476     0.35900
C1486       C  0.75144309  0.53524906  0.43525285    -0.20100
C1487       C  0.75054454  0.50744685  0.42447695    -0.25400
C1488       C  0.75427720  0.49813692  0.37969215     0.27300
H1489       H  0.76498969  0.55895049  0.32746458     0.13100
N1490       N  0.75938910  0.58252072  0.40957646    -0.82600
H1491       H  0.74619288  0.49270450  0.45096854     0.17900
N1492       N  0.75197333  0.46969300  0.36965859    -0.81200
H1493       H  0.76296758  0.59351967  0.37957117     0.33500
H1494       H  0.77639295  0.58534007  0.43039411     0.38000
H1495       H  0.74838684  0.45852773  0.39948330     0.33500
H1496       H  0.73499581  0.46704998  0.34871774     0.30200
H1497       H  0.70540850  0.53856166  0.25288377     0.33500
H1498       H  0.70852207  0.52745532  0.30686338     0.30200
H1499       H  0.78408282  0.43518595  0.22680721     0.38100
H1500       H  0.80989097  0.45150247  0.25193934     0.33600
C1501       C  0.74685247  0.51235814  0.71992415    -0.20200
C1502       C  0.72897480  0.51579754  0.75706964     0.36000
C1503       C  0.73332749  0.50168379  0.79803632    -0.26200
C1504       C  0.75508665  0.48382519  0.80294416     0.02500
C1505       C  0.77356286  0.48074941  0.76663308     0.27300
C1506       C  0.76936994  0.49525135  0.72542591    -0.25300
N1507       N  0.70616118  0.53354826  0.75325523    -0.82700
H1508       H  0.71930493  0.50435804  0.82609509     0.13100
C1509       C  0.75769040  0.46886060  0.84684408     0.02400
N1510       N  0.79582731  0.46224749  0.77112728    -0.81200
H1511       H  0.78297763  0.49225513  0.69692234     0.17900
C1512       C  0.74294969  0.44477749  0.85344266    -0.26100
C1513       C  0.74024281  0.43309910  0.89739055     0.35900
C1514       C  0.75242977  0.44598984  0.93525921    -0.20100
C1515       C  0.76836379  0.46925252  0.92787296    -0.25400
C1516       C  0.77098013  0.48088488  0.88424839     0.27300
H1517       H  0.73243013  0.43586973  0.82459251     0.13100
N1518       N  0.72363287  0.40950721  0.90397593    -0.82600
H1519       H  0.77798687  0.47908537  0.95678757     0.17900
N1520       N  0.78567166  0.50580775  0.87825102    -0.81200
H1521       H  0.73637637  0.39367210  0.91478267     0.33500
H1522       H  0.71516994  0.40335408  0.87313640     0.38000
H1523       H  0.79351785  0.51252644  0.90948823     0.33500
H1524       H  0.80226475  0.50178414  0.85732215     0.30200
H1525       H  0.80717806  0.46191280  0.74102689     0.33500
H1526       H  0.80863877  0.46960092  0.79674873     0.30200
H1527       H  0.68866063  0.52219332  0.75927395     0.38100
H1528       H  0.70772906  0.54822353  0.77888269     0.33600
C1529       C  0.61204694  0.79855539  0.98207354    -0.20200
C1530       C  0.60345289  0.81626142  0.01724301     0.36000
C1531       C  0.62130344  0.83644474  0.03395555    -0.26200
C1532       C  0.64746501  0.83949531  0.01610406     0.02500
C1533       C  0.65558286  0.82275901  0.97961772     0.27300
C1534       C  0.63784035  0.80267370  0.96294849    -0.25300
N1535       N  0.57744173  0.81254880  0.03808112    -0.82700
H1536       H  0.61515398  0.84924181  0.06211453     0.13100
C1537       C  0.66722865  0.85849565  0.03793877     0.02400
N1538       N  0.68248709  0.82512529  0.96147384    -0.81200
H1539       H  0.64477462  0.78915407  0.93630498     0.17900
C1540       C  0.68313136  0.84921269  0.07461505    -0.26100
C1541       C  0.70506950  0.86462035  0.09144483     0.35900
C1542       C  0.71159393  0.88972865  0.07068868    -0.20100
C1543       C  0.69424508  0.89997615  0.03653329    -0.25400
C1544       C  0.67212180  0.88462509  0.02000506     0.27300
H1545       H  0.67901279  0.82938105  0.08902169     0.13100
N1546       N  0.72120496  0.85455451  0.12878222    -0.82600
H1547       H  0.69892533  0.91927585  0.02065253     0.17900
N1548       N  0.65484739  0.89531594  0.98468749    -0.81200
H1549       H  0.71379157  0.83588294  0.14023484     0.33500
H1550       H  0.71911675  0.86809942  0.15598314     0.38000
H1551       H  0.66094316  0.91489312  0.97559209     0.33500
H1552       H  0.65713442  0.88335148  0.95553921     0.30200
H1553       H  0.68565658  0.81075704  0.93582136     0.33500
H1554       H  0.68418798  0.84409157  0.94580717     0.30200
H1555       H  0.56281220  0.81733958  0.01348564     0.38100
H1556       H  0.57478490  0.82623212  0.06494541     0.33600
C1557       C  0.49368372  0.66753989  0.97823316    -0.20200
C1558       C  0.47542365  0.67571812  0.01250279     0.36000
C1559       C  0.45358565  0.65861202  0.02404906    -0.26200
C1560       C  0.44983641  0.63357469  0.00211270     0.02500
C1561       C  0.46801654  0.62547442  0.96787487     0.27300
C1562       C  0.48974501  0.64250187  0.95632571    -0.25300
N1563       N  0.47948366  0.70091179  0.03614653    -0.82700
H1564       H  0.43946087  0.66472631  0.05032072     0.13100
C1565       C  0.42627523  0.61636372  0.01424464     0.02400
N1566       N  0.46433058  0.59994236  0.94510305    -0.81200
H1567       H  0.50378567  0.63616474  0.93006275     0.17900
C1568       C  0.40381628  0.61596943  0.98496070    -0.26100
C1569       C  0.38031044  0.60149379  0.99660029     0.35900
C1570       C  0.37924903  0.58713727  0.03845779    -0.20100
C1571       C  0.40237437  0.58617694  0.06645529    -0.25400
C1572       C  0.42593643  0.60074129  0.05470860     0.27300
H1573       H  0.40444327  0.62754067  0.95341780     0.13100
N1574       N  0.35729099  0.60161051  0.96642513    -0.82600
H1575       H  0.40159598  0.57517396  0.09855031     0.17900
N1576       N  0.44928802  0.60029016  0.08409331    -0.81200
H1577       H  0.36127593  0.61318056  0.93718676     0.33500
H1578       H  0.35423068  0.58171084  0.95535502     0.38000
H1579       H  0.44573602  0.58800623  0.11264768     0.33500
H1580       H  0.46504830  0.59125380  0.06592439     0.30200
H1581       H  0.47933434  0.59707021  0.92046880     0.33500
H1582       H  0.46688614  0.58462382  0.96950120     0.30200
H1583       H  0.49759907  0.69938777  0.05451156     0.38100
H1584       H  0.46421505  0.70392859  0.06025882     0.33600
C1585       C  0.55661315  0.74183572  0.10688741    -0.20200
C1586       C  0.53331623  0.75764732  0.11597756     0.36000
C1587       C  0.52421054  0.76041670  0.16114491    -0.26200
C1588       C  0.53779586  0.74777633  0.19732148     0.02500
C1589       C  0.56222926  0.73394462  0.18890860     0.27300
C1590       C  0.57160213  0.73131555  0.14366593    -0.25300
N1591       N  0.51839858  0.77002315  0.07913718    -0.82700
H1592       H  0.50542221  0.77094536  0.16786171     0.13100
C1593       C  0.52308181  0.74385074  0.24086690     0.02400
N1594       N  0.57652966  0.72137985  0.22617505    -0.81200
H1595       H  0.58963499  0.71956374  0.13690735     0.17900
C1596       C  0.51057632  0.71880814  0.24757390    -0.26100
C1597       C  0.49487781  0.71363349  0.28634739     0.35900
C1598       C  0.49230120  0.73383988  0.32067494    -0.20100
C1599       C  0.50433236  0.75936249  0.31322716    -0.25400
C1600       C  0.51955137  0.76462225  0.27329513     0.27300
H1601       H  0.51269679  0.70327227  0.22166416     0.13100
N1602       N  0.48151798  0.68782405  0.29065295    -0.82600
H1603       H  0.50234796  0.77500691  0.33891286     0.17900
N1604       N  0.53148689  0.79078797  0.26560628    -0.81200
H1605       H  0.48602688  0.67522411  0.26299640     0.33500
H1606       H  0.46070597  0.69135945  0.28926516     0.38000
H1607       H  0.52693351  0.80386249  0.29257693     0.33500
H1608       H  0.55248584  0.78832283  0.26568405     0.30200
H1609       H  0.59393186  0.71169765  0.21431677     0.33500
H1610       H  0.58301908  0.73680935  0.24808559     0.30200
H1611       H  0.53097298  0.78448163  0.06395956     0.38100
H1612       H  0.50160101  0.78048705  0.09158625     0.33600
C1613       C  0.52142778  0.73477178  0.82894551    -0.20200
C1614       C  0.49804051  0.71943119  0.81824464     0.36000
C1615       C  0.48614963  0.72166555  0.77466698    -0.26200
C1616       C  0.49686207  0.73910894  0.74155544     0.02500
C1617       C  0.51898468  0.75597430  0.75310279     0.27300
C1618       C  0.53104677  0.75371421  0.79692271    -0.25300
N1619       N  0.48682238  0.70110330  0.85152249    -0.82700
H1620       H  0.46901350  0.70897492  0.76582590     0.13100
C1621       C  0.48657918  0.73690629  0.69379400     0.02400
N1622       N  0.52928111  0.77501573  0.72015871    -0.81200
H1623       H  0.54879533  0.76566187  0.80516397     0.17900
C1624       C  0.46351095  0.75135302  0.67974663    -0.26100
C1625       C  0.45295826  0.74842779  0.63507924     0.35900
C1626       C  0.46556926  0.73068307  0.60399379    -0.20100
C1627       C  0.48838455  0.71599064  0.61859642    -0.25400
C1628       C  0.49886733  0.71874989  0.66308290     0.27300
H1629       H  0.45374861  0.76501570  0.70346293     0.13100
N1630       N  0.43004524  0.76412498  0.62105044    -0.82600
H1631       H  0.49814209  0.70220530  0.59504915     0.17900
N1632       N  0.52159501  0.70267929  0.67759517    -0.81200
H1633       H  0.43486224  0.78461476  0.62513783     0.33500
H1634       H  0.41401612  0.75957041  0.64300790     0.38000
H1635       H  0.52781762  0.68978011  0.65134240     0.33500
H1636       H  0.53777087  0.71578155  0.68400297     0.30200
H1637       H  0.54536236  0.78605413  0.73411453     0.33500
H1638       H  0.53716251  0.76410823  0.69269174     0.30200
H1639       H  0.48009338  0.71270419  0.87910456     0.38100
H1640       H  0.46982687  0.69118202  0.83828613     0.33600
C1641       C  0.64170238  0.69475163  0.85967486    -0.20200
C1642       C  0.64109200  0.70763195  0.81663192     0.36000
C1643       C  0.65665845  0.69712034  0.78078169    -0.26200
C1644       C  0.67149625  0.67309235  0.78651804     0.02500
C1645       C  0.67317275  0.66105967  0.83044115     0.27300
C1646       C  0.65883314  0.67256858  0.86690785    -0.25300
N1647       N  0.62361355  0.73047214  0.80902425    -0.82700
H1648       H  0.65581291  0.70665239  0.74737423     0.13100
C1649       C  0.68219737  0.65895179  0.74552744     0.02400
N1650       N  0.68780992  0.63619252  0.83720946    -0.81200
H1651       H  0.65889177  0.66254364  0.89995624     0.17900
C1652       C  0.70909746  0.64979825  0.74515841    -0.26100
C1653       C  0.71833776  0.63242913  0.71054424     0.35900
C1654       C  0.70077018  0.62547665  0.67444303    -0.20100
C1655       C  0.67462564  0.63619481  0.67283722    -0.25400
C1656       C  0.66486683  0.65234584  0.70853776     0.27300
H1657       H  0.72248476  0.65515687  0.77313206     0.13100
N1658       N  0.74528789  0.62156694  0.71214500    -0.82600
H1659       H  0.66113120  0.63025510  0.64530086     0.17900
N1660       N  0.63702553  0.66076957  0.70854907    -0.81200
H1661       H  0.75579563  0.62916967  0.74045295     0.33500
H1662       H  0.74374649  0.60063949  0.71712886     0.38000
H1663       H  0.62714666  0.65430292  0.67883013     0.33500
H1664       H  0.62745923  0.65106734  0.73593145     0.30200
H1665       H  0.68699591  0.63009228  0.87146360     0.33500
H1666       H  0.67801342  0.62110780  0.81829994     0.30200
H1667       H  0.63042714  0.74625020  0.82992292     0.38100
H1668       H  0.62513445  0.73731258  0.77524906     0.33600
C1669       C  0.68447419  0.50986092  0.06854057    -0.20200
C1670       C  0.66069047  0.50977162  0.04139917     0.36000
C1671       C  0.64781743  0.53447809  0.03070692    -0.26200
C1672       C  0.65767052  0.55931436  0.04721541     0.02500
C1673       C  0.68097447  0.55941554  0.07520900     0.27300
C1674       C  0.69420307  0.53477753  0.08528147    -0.25300
N1675       N  0.65011506  0.48479529  0.02344128    -0.82700
H1676       H  0.62984874  0.53440388  0.00938409     0.13100
C1677       C  0.64376855  0.58499758  0.03348457     0.02400
N1678       N  0.69132466  0.58456612  0.09279025    -0.81200
H1679       H  0.71220840  0.53502445  0.10650818     0.17900
C1680       C  0.63214971  0.60186789  0.06676104    -0.26100
C1681       C  0.61817470  0.62579992  0.05442384     0.35900
C1682       C  0.61583273  0.63307679  0.00772350    -0.20100
C1683       C  0.62760428  0.61610056  0.97466837    -0.25400
C1684       C  0.64167727  0.59242755  0.98699607     0.27300
H1685       H  0.63367000  0.59610296  0.10246249     0.13100
N1686       N  0.60612726  0.64244009  0.08907886    -0.82600
H1687       H  0.62638440  0.62162919  0.93882464     0.17900
N1688       N  0.65422779  0.57604810  0.95244491    -0.81200
H1689       H  0.60989700  0.63439946  0.12160255     0.33500
H1690       H  0.58517335  0.64180309  0.08426480     0.38000
H1691       H  0.65081294  0.58422344  0.91989976     0.33500
H1692       H  0.67511827  0.57674486  0.95797250     0.30200
H1693       H  0.70843572  0.58117253  0.11310566     0.33500
H1694       H  0.69764452  0.59626221  0.06492341     0.30200
H1695       H  0.64199970  0.47387299  0.05084014     0.38100
H1696       H  0.63395947  0.48856294  0.00115955     0.33600
loop_ 
_geom_bond_atom_site_label_1 
_geom_bond_atom_site_label_2 
_geom_bond_distance 
_geom_bond_site_symmetry_2 
_ccdc_geom_bond_type 
O1          Cr19   2.043       .  S
O1            C9   1.279       .  A
O2          Cr19   1.952   1_554  S
O2            C3   1.256       .  A
C3            O4   1.271       .  A
C3         C1585   1.484       .  S
O4          Cr20   2.030   1_554  S
O5          Cr20   1.995   1_554  S
O5            C6   1.261   1_554  A
C6            O7   1.264       .  A
C6         C1682   1.496   1_556  S
O7          Cr21   2.010       .  S
O8          Cr21   1.956       .  S
O8            C9   1.262       .  A
C9         C1557   1.482       .  S
O10         Cr19   2.009       .  S
O10          C18   1.263       .  A
O11         Cr19   2.044       .  S
O11          C12   1.273       .  A
C12          O13   1.257       .  A
C12        C1529   1.500       .  S
O13         Cr20   1.967       .  S
O14         Cr20   2.030       .  S
O14          C15   1.273       .  A
C15          O16   1.260       .  A
C15        C1641   1.469       .  S
O16         Cr21   1.960       .  S
O17         Cr21   1.998       .  S
O17          C18   1.260       .  A
C18        C1613   1.488       .  S
Cr19         O22   1.773       .  S
Cr20         O22   1.773       .  S
Cr21         O22   1.765       .  S
O23         Cr41   2.021       .  S
O23          C31   1.271       .  A
O24         Cr41   1.961       .  S
O24          C25   1.260       .  A
C25          O26   1.270       .  A
C25        C1486   1.495       .  S
O26         Cr42   2.026       .  S
O27         Cr42   1.984       .  S
O27          C28   1.259       .  A
C28          O29   1.263       .  A
C28        C1445   1.491       .  S
O29         Cr43   2.003       .  S
O30         Cr43   1.964       .  S
O30          C31   1.261       .  A
C31        C1430   1.485       .  S
O32         Cr41   1.999       .  S
O32          C40   1.265       .  A
O33         Cr41   2.028       .  S
O33          C34   1.269       .  A
C34          O35   1.258       .  A
C34        C1389   1.496       .  S
O35         Cr42   1.965       .  S
O36         Cr42   2.024       .  S
O36          C37   1.270       .  A
C37          O38   1.259       .  A
C37        C1654   1.464       .  S
O38         Cr43   1.962       .  S
O39         Cr43   1.996       .  S
O39          C40   1.263       .  A
C40        C1501   1.486       .  S
Cr41         O44   1.773       .  S
Cr42         O44   1.771       .  S
Cr43         O44   1.763       .  S
O45         Cr63   1.999       .  S
O45          C53   1.267       .  A
O46         Cr63   2.003       .  S
O46          C47   1.265       .  A
C47          O48   1.259       .  A
C47        C1277   1.488       .  S
O48         Cr64   1.982       .  S
O49         Cr64   1.991       .  S
O49          C50   1.257       .  A
C50          O51   1.256       .  A
C50        C1417   1.471       .  S
O51         Cr65   1.984       .  S
O52         Cr65   2.005       .  S
O52          C53   1.270       .  A
C53        C1305   1.493       .  S
O54         Cr63   2.010       .  S
O54          C62   1.266       .  A
O55         Cr63   2.010       .  S
O55          C56   1.266       .  A
C56          O57   1.259       .  A
C56        C1333   1.485       .  S
O57         Cr64   1.970       .  S
O58         Cr64   1.994       .  S
O58          C59   1.266       .  A
C59          O60   1.270       .  A
C59        C1361   1.484       .  S
O60         Cr65   2.010       .  S
O61         Cr65   1.978       .  S
O61          C62   1.256       .  A
C62        C1262   1.477       .  S
Cr63         O66   1.785       .  S
Cr64         O66   1.775       .  S
Cr65         O66   1.780       .  S
O67         Cr85   1.953       .  S
O67          C75   1.257   1_554  A
O68         Cr85   2.036       .  S
O68          C69   1.274       .  A
C69          O70   1.264       .  A
C69        C1669   1.495       .  S
O70         Cr86   1.982       .  S
O71         Cr86   2.000       .  S
O71          C72   1.261       .  A
C72          O73   1.257       .  A
C72        C1221   1.489       .  S
O73         Cr87   1.979       .  S
O74         Cr87   2.042   1_556  S
O74          C75   1.274       .  A
C75        C1514   1.486       .  S
O76         Cr85   2.040       .  S
O76          C84   1.271       .  A
O77         Cr85   1.997       .  S
O77          C78   1.264       .  A
C78          O79   1.264       .  A
C78        C1473   1.482       .  S
O79         Cr86   1.997       .  S
O80         Cr86   1.974       .  S
O80          C81   1.264       .  A
C81          O82   1.277       .  A
C81        C1374   1.501       .  S
O82         Cr87   2.044       .  S
O83         Cr87   1.971       .  S
O83          C84   1.257       .  A
C84        C1193   1.497       .  S
Cr85         O88   1.774       .  S
Cr86         O88   1.767       .  S
Cr87         O88   1.772       .  S
O89        Cr107   2.030       .  S
O89          C97   1.274       .  A
O90        Cr107   1.960   1_554  S
O90          C91   1.259       .  A
C91          O92   1.271       .  A
C91        C1346   1.482       .  S
O92        Cr108   2.026   1_554  S
O93        Cr108   1.995   1_554  S
O93          C94   1.259   1_554  A
C94          O95   1.261       .  A
C94        C1178   1.500   1_556  S
O95        Cr109   2.002       .  S
O96        Cr109   1.963       .  S
O96          C97   1.262       .  A
C97        C1234   1.483       .  S
O98        Cr107   2.003       .  S
O98         C106   1.263       .  A
O99        Cr107   2.023       .  S
O99         C100   1.268       .  A
C100        O101   1.257       .  A
C100       C1109   1.492       .  S
O101       Cr108   1.969       .  S
O102       Cr108   2.028       .  S
O102        C103   1.275       .  A
C103        O104   1.262       .  A
C103       C1150   1.491       .  S
O104       Cr109   1.964       .  S
O105       Cr109   1.997       .  S
O105        C106   1.259       .  A
C106       C1318   1.477       .  S
Cr107       O110   1.779       .  S
Cr108       O110   1.774       .  S
Cr109       O110   1.768       .  S
O111       Cr129   2.015       .  S
O111        C119   1.272       .  A
O112       Cr129   1.962       .  S
O112        C113   1.258       .  A
C113        O114   1.272       .  A
C113       C1053   1.485       .  S
O114       Cr130   2.039       .  S
O115       Cr130   1.985       .  S
O115        C116   1.259       .  A
C116        O117   1.264       .  A
C116       C1290   1.495       .  S
O117       Cr131   2.005       .  S
O118       Cr131   1.979       .  S
O118        C119   1.263       .  A
C119       C1025   1.493       .  S
O120       Cr129   2.001       .  S
O120        C128   1.265       .  A
O121       Cr129   2.031       .  S
O121        C122   1.268       .  A
C122        O123   1.255       .  A
C122       C1010   1.489       .  S
O123       Cr130   1.965       .  S
O124       Cr130   2.027       .  S
O124        C125   1.272       .  A
C125        O126   1.263       .  A
C125       C1137   1.495       .  S
O126       Cr131   1.969       .  S
O127       Cr131   2.001       .  S
O127        C128   1.262       .  A
C128       C1094   1.478       .  S
Cr129       O132   1.772       .  S
Cr130       O132   1.773       .  S
Cr131       O132   1.767       .  S
O133       Cr151   1.961       .  S
O133        C141   1.258       .  A
O134       Cr151   2.028       .  S
O134        C135   1.274       .  A
C135        O136   1.263       .  A
C135       C1458   1.489       .  S
O136       Cr152   1.972       .  S
O137       Cr152   1.995       .  S
O137        C138   1.260       .  A
C138        O139   1.259       .  A
C138       C1038   1.480       .  S
O139       Cr153   1.995       .  S
O140       Cr153   2.039       .  S
O140        C141   1.273       .  A
C141       C1626   1.489       .  S
O142       Cr151   2.037       .  S
O142        C150   1.271       .  A
O143       Cr151   2.007       .  S
O143        C144   1.266       .  A
C144        O145   1.259       .  A
C144       C1598   1.494       .  S
O145       Cr152   1.986       .  S
O146       Cr152   1.966       .  S
O146        C147   1.261       .  A
C147        O148   1.278       .  A
C147        C982   1.494       .  S
O148       Cr153   2.047       .  S
O149       Cr153   1.971       .  S
O149        C150   1.258       .  A
C150        C941   1.498       .  S
Cr151       O154   1.772       .  S
Cr152       O154   1.762       .  S
Cr153       O154   1.771       .  S
O155       Cr173   1.997       .  S
O155        C163   1.263   1_554  A
O156       Cr173   2.002       .  S
O156        C157   1.266       .  A
C157        O158   1.264       .  A
C157       C1165   1.493       .  S
O158       Cr174   1.999       .  S
O159       Cr174   1.995       .  S
O159        C160   1.262       .  A
C160        O161   1.261       .  A
C160       C1570   1.483       .  S
O161       Cr175   1.991       .  S
O162       Cr175   2.007   1_556  S
O162        C163   1.266       .  A
C163       C1081   1.490       .  S
O164       Cr173   2.011       .  S
O164        C172   1.269       .  A
O165       Cr173   2.017       .  S
O165        C166   1.264       .  A
C166        O167   1.261       .  A
C166       C1066   1.489       .  S
O167       Cr174   1.986       .  S
O168       Cr174   1.989       .  S
O168        C169   1.263       .  A
C169        O170   1.268       .  A
C169        C969   1.491       .  S
O170       Cr175   2.010       .  S
O171       Cr175   1.996       .  S
O171        C172   1.263       .  A
C172        C913   1.486       .  S
Cr173       O176   1.789       .  S
Cr174       O176   1.780       .  S
Cr175       O176   1.782       .  S
O177       Cr195   2.032       .  S
O177        C185   1.274       .  A
O178       Cr195   1.951       .  S
O178        C179   1.258       .  A
C179        O180   1.271       .  A
C179        C801   1.470       .  S
O180       Cr196   2.019       .  S
O181       Cr196   1.993       .  S
O181        C182   1.259       .  A
C182        O183   1.259       .  A
C182        C898   1.492       .  S
O183       Cr197   2.001       .  S
O184       Cr197   1.958       .  S
O184        C185   1.261       .  A
C185        C773   1.485   1_455  S
O186       Cr195   2.003       .  S
O186        C194   1.262       .  A
O187       Cr195   2.019       .  S
O187        C188   1.266       .  A
C188        O189   1.258       .  A
C188        C997   1.495       .  S
O189       Cr196   1.973       .  S
O190       Cr196   2.031       .  S
O190        C191   1.275       .  A
C191        O192   1.259       .  A
C191        C857   1.477       .  S
O192       Cr197   1.946       .  S
O193       Cr197   1.997       .  S
O193        C194   1.260       .  A
C194        C829   1.479       .  S
Cr195       O198   1.773       .  S
Cr196       O198   1.773       .  S
Cr197       O198   1.764       .  S
O199       Cr217   2.021   1_565  S
O199        C207   1.271       .  A
O200       Cr217   1.944       .  S
O200        C201   1.257   1_554  A
C201        O202   1.275   1_556  A
C201        C717   1.493       .  S
O202       Cr218   2.041       .  S
O203       Cr218   1.988       .  S
O203        C204   1.260       .  A
C204        O205   1.262       .  A
C204        C689   1.490       .  S
O205       Cr219   2.008       .  S
O206       Cr219   1.964       .  S
O206        C207   1.261   1_545  A
C207        C674   1.479       .  S
O208       Cr217   1.998       .  S
O208        C216   1.263       .  A
O209       Cr217   2.023       .  S
O209        C210   1.266       .  A
C210        O211   1.257       .  A
C210       C1122   1.494       .  S
O211       Cr218   1.971       .  S
O212       Cr218   2.032       .  S
O212        C213   1.275       .  A
C213        O214   1.258       .  A
C213        C870   1.482       .  S
O214       Cr219   1.947       .  S
O215       Cr219   2.000       .  S
O215        C216   1.264       .  A
C216        C745   1.482   1_545  S
Cr217       O220   1.770       .  S
Cr218       O220   1.772       .  S
Cr219       O220   1.762       .  S
O221       Cr239   1.963   1_554  S
O221        C229   1.259       .  A
O222       Cr239   2.031       .  S
O222        C223   1.275       .  A
C223        O224   1.261       .  A
C223        C562   1.492   1_455  S
O224       Cr240   1.966       .  S
O225       Cr240   1.985       .  S
O225        C226   1.258   1_556  A
C226        O227   1.259       .  A
C226        C661   1.488       .  S
O227       Cr241   1.992       .  S
O228       Cr241   2.032       .  S
O228        C229   1.271       .  A
C229        C618   1.492       .  S
O230       Cr239   2.032       .  S
O230        C238   1.271       .  A
O231       Cr239   2.004       .  S
O231        C232   1.264       .  A
C232        O233   1.257       .  A
C232        C633   1.481       .  S
O233       Cr240   1.979       .  S
O234       Cr240   1.964       .  S
O234        C235   1.262       .  A
C235        O236   1.275       .  A
C235        C577   1.490       .  S
O236       Cr241   2.036   1_556  S
O237       Cr241   1.976   1_556  S
O237        C238   1.260       .  A
C238        C926   1.491       .  S
Cr239       O242   1.773       .  S
Cr240       O242   1.765       .  S
Cr241       O242   1.771   1_554  S
O243       Cr261   1.953       .  S
O243        C251   1.257       .  A
O244       Cr261   2.026       .  S
O244        C245   1.272       .  A
C245        O246   1.265       .  A
C245        C885   1.494   1_565  S
O246       Cr262   1.981       .  S
O247       Cr262   1.998       .  S
O247        C248   1.260       .  A
C248        O249   1.259       .  A
C248        C534   1.486       .  S
O249       Cr263   1.988       .  S
O250       Cr263   2.035       .  S
O250        C251   1.273       .  A
C251        C758   1.479       .  S
O252       Cr261   2.037       .  S
O252        C260   1.270       .  A
O253       Cr261   2.003       .  S
O253        C254   1.266       .  A
C254        O255   1.261       .  A
C254        C730   1.486       .  S
O255       Cr262   1.982       .  S
O256       Cr262   1.957       .  S
O256        C257   1.260       .  A
C257        O258   1.275       .  A
C257        C590   1.494       .  S
O258       Cr263   2.040       .  S
O259       Cr263   1.972       .  S
O259        C260   1.257       .  A
C260        C954   1.498       .  S
Cr261       O264   1.772       .  S
Cr262       O264   1.762       .  S
Cr263       O264   1.773       .  S
O265       Cr283   2.020   1_455  S
O265        C273   1.272       .  A
O266       Cr283   1.959       .  S
O266        C267   1.257       .  A
C267        O268   1.269       .  A
C267        C646   1.479       .  S
O268       Cr284   2.024       .  S
O269       Cr284   1.986       .  S
O269        C270   1.260       .  A
C270        O271   1.262       .  A
C270        C493   1.491       .  S
O271       Cr285   2.005       .  S
O272       Cr285   1.971       .  S
O272        C273   1.264   1_655  A
C273        C521   1.489       .  S
O274       Cr283   1.995       .  S
O274        C282   1.261       .  A
O275       Cr283   2.026       .  S
O275        C276   1.269       .  A
C276        O277   1.258       .  A
C276       C1402   1.487       .  S
O277       Cr284   1.966       .  S
O278       Cr284   2.026       .  S
O278        C279   1.271       .  A
C279        O280   1.260       .  A
C279        C465   1.473       .  S
O280       Cr285   1.967       .  S
O281       Cr285   1.995       .  S
O281        C282   1.260       .  A
C282        C605   1.478       .  S
Cr283       O286   1.776       .  S
Cr284       O286   1.775       .  S
Cr285       O286   1.768       .  S
O287       Cr305   2.028       .  S
O287        C295   1.273       .  A
O288       Cr305   1.959       .  S
O288        C289   1.256   1_554  A
C289        O290   1.271   1_556  A
C289        C409   1.484       .  S
O290       Cr306   2.032       .  S
O291       Cr306   1.994       .  S
O291        C292   1.260       .  A
C292        O293   1.259       .  A
C292        C549   1.492       .  S
O293       Cr307   1.991       .  S
O294       Cr307   1.962       .  S
O294        C295   1.260       .  A
C295        C381   1.479   1_565  S
O296       Cr305   2.004       .  S
O296        C304   1.265       .  A
O297       Cr305   2.037       .  S
O297        C298   1.272       .  A
C298        O299   1.259       .  A
C298       C1542   1.496       .  S
O299       Cr306   1.974       .  S
O300       Cr306   2.032       .  S
O300        C301   1.273       .  A
C301        O302   1.261       .  A
C301        C478   1.470       .  S
O302       Cr307   1.965       .  S
O303       Cr307   1.992       .  S
O303        C304   1.261       .  A
C304        C437   1.488       .  S
Cr305       O308   1.774       .  S
Cr306       O308   1.773       .  S
Cr307       O308   1.764       .  S
O309       Cr327   1.997   1_554  S
O309        C317   1.264       .  A
O310       Cr327   2.002   1_454  S
O310        C311   1.265   1_554  A
C311        O312   1.265   1_455  A
C311        C702   1.503       .  S
O312       Cr328   2.000       .  S
O313       Cr328   1.986       .  S
O313        C314   1.258       .  A
C314        O315   1.261       .  A
C314        C394   1.478   1_556  S
O315       Cr329   1.989       .  S
O316       Cr329   2.002   1_554  S
O316        C317   1.268       .  A
C317        C842   1.485       .  S
O318       Cr327   2.009       .  S
O318        C326   1.267       .  A
O319       Cr327   2.012       .  S
O319        C320   1.265       .  A
C320        O321   1.254       .  A
C320        C814   1.477       .  S
O321       Cr328   1.955       .  S
O322       Cr328   1.997       .  S
O322        C323   1.266       .  A
C323        O324   1.270       .  A
C323        C366   1.486       .  S
O324       Cr329   2.008       .  S
O325       Cr329   1.997   1_554  S
O325        C326   1.263   1_554  A
C326       C1206   1.485       .  S
Cr327       O330   1.784       .  S
Cr328       O330   1.772       .  S
Cr329       O330   1.772       .  S
O331       Cr349   1.952       .  S
O331        C339   1.257       .  A
O332       Cr349   2.026   1_565  S
O332        C333   1.271       .  A
C333        O334   1.262   1_565  A
C333        C506   1.494       .  S
O334       Cr350   1.973       .  S
O335       Cr350   2.000       .  S
O335        C336   1.263       .  A
C336        O337   1.259       .  A
C336        C786   1.484       .  S
O337       Cr351   1.983       .  S
O338       Cr351   2.046       .  S
O338        C339   1.275       .  A
C339        C450   1.490       .  S
O340       Cr349   2.025       .  S
O340        C348   1.268       .  A
O341       Cr349   1.991       .  S
O341        C342   1.262       .  A
C342        O343   1.264       .  A
C342        C422   1.472       .  S
O343       Cr350   2.003       .  S
O344       Cr350   1.965       .  S
O344        C345   1.261       .  A
C345        O346   1.277       .  A
C345        C353   1.497       .  S
O346       Cr351   2.046       .  S
O347       Cr351   1.977       .  S
O347        C348   1.259       .  A
C348       C1249   1.487       .  S
Cr349       O352   1.769       .  S
Cr350       O352   1.764       .  S
Cr351       O352   1.771       .  S
C353        C354   1.419       .  A
C353        C358   1.407       .  A
C354        C355   1.408       .  A
C354        N359   1.439       .  S
C355        C356   1.404       .  A
C355        H360   1.083       .  S
C356        C361   1.501       .  S
C356        C357   1.415       .  A
C357        C358   1.412       .  A
C357        N362   1.437       .  S
C358        H363   1.083       .  S
N359        H379   1.046       .  S
N359        H380   1.046       .  S
C361        C364   1.404       .  A
C361        C368   1.417       .  A
N362        H377   1.046       .  S
N362        H378   1.045       .  S
C364        C365   1.405       .  A
C364        H369   1.083       .  S
C365        C366   1.413       .  A
C365        N370   1.438       .  S
C366        C367   1.404       .  A
C367        C368   1.415       .  A
C367        H371   1.083       .  S
C368        N372   1.437       .  S
N370        H373   1.046       .  S
N370        H374   1.046       .  S
N372        H375   1.045       .  S
N372        H376   1.046       .  S
C381        C382   1.411       .  A
C381        C386   1.408       .  A
C382        C383   1.403       .  A
C382        N387   1.438       .  S
C383        C384   1.404       .  A
C383        H388   1.084       .  S
C384        C389   1.482       .  S
C384        C385   1.407       .  A
C385        C386   1.405       .  A
C385        N390   1.438   1_554  S
C386        H391   1.084   1_545  S
N387        H407   1.045       .  S
N387        H408   1.046       .  S
C389        C392   1.407       .  A
C389        C396   1.406       .  A
N390        H405   1.046       .  S
N390        H406   1.046       .  S
C392        C393   1.412       .  A
C392        H397   1.083       .  S
C393        C394   1.411       .  A
C393        N398   1.437       .  S
C394        C395   1.405   1_554  A
C395        C396   1.397   1_556  A
C395        H399   1.084       .  S
C396        N400   1.439   1_554  S
N398        H401   1.046       .  S
N398        H402   1.046       .  S
N400        H403   1.046       .  S
N400        H404   1.046       .  S
C409        C410   1.415       .  A
C409        C414   1.406       .  A
C410        C411   1.403       .  A
C410        N415   1.439       .  S
C411        C412   1.400       .  A
C411        H416   1.084       .  S
C412        C417   1.485       .  S
C412        C413   1.411       .  A
C413        C414   1.413       .  A
C413        N418   1.437       .  S
C414        H419   1.084       .  S
N415        H435   1.046       .  S
N415        H436   1.046       .  S
C417        C420   1.401       .  A
C417        C424   1.413   1_565  A
N418        H433   1.046       .  S
N418        H434   1.046       .  S
C420        C421   1.405       .  A
C420        H425   1.084       .  S
C421        C422   1.411   1_565  A
C421        N426   1.438       .  S
C422        C423   1.401       .  A
C423        C424   1.409       .  A
C423        H427   1.084       .  S
C424        N428   1.437       .  S
N426        H429   1.046       .  S
N426        H430   1.045       .  S
N428        H431   1.046       .  S
N428        H432   1.045       .  S
C437        C438   1.417       .  A
C437        C442   1.407       .  A
C438        C439   1.402       .  A
C438        N443   1.439       .  S
C439        C440   1.399   1_565  A
C439        H444   1.084       .  S
C440        C445   1.486       .  S
C440        C441   1.411       .  A
C441        C442   1.415   1_545  A
C441        N446   1.437       .  S
C442        H447   1.083       .  S
N443        H463   1.046       .  S
N443        H464   1.046       .  S
C445        C448   1.407       .  A
C445        C452   1.405   1_545  A
N446        H461   1.045       .  S
N446        H462   1.046       .  S
C448        C449   1.416       .  A
C448        H453   1.083       .  S
C449        C450   1.413       .  A
C449        N454   1.437       .  S
C450        C451   1.408       .  A
C451        C452   1.400   1_545  A
C451        H455   1.084   1_545  S
C452        N456   1.438       .  S
N454        H457   1.045       .  S
N454        H458   1.045       .  S
N456        H459   1.045       .  S
N456        H460   1.046       .  S
C465        C466   1.409       .  A
C465        C470   1.403       .  A
C466        C467   1.405       .  A
C466        N471   1.438       .  S
C467        C468   1.406       .  A
C467        H472   1.083       .  S
C468        C473   1.489       .  S
C468        C469   1.411       .  A
C469        C470   1.406       .  A
C469        N474   1.437       .  S
C470        H475   1.084       .  S
N471        H491   1.045       .  S
N471        H492   1.046       .  S
C473        C476   1.406       .  A
C473        C480   1.412       .  A
N474        H489   1.046       .  S
N474        H490   1.045       .  S
C476        C477   1.404       .  A
C476        H481   1.084       .  S
C477        C478   1.409       .  A
C477        N482   1.438       .  S
C478        C479   1.401       .  A
C479        C480   1.407       .  A
C479        H483   1.084       .  S
C480        N484   1.437       .  S
N482        H485   1.046       .  S
N482        H486   1.045       .  S
N484        H487   1.046       .  S
N484        H488   1.046       .  S
C493        C494   1.418       .  A
C493        C498   1.407       .  A
C494        C495   1.407       .  A
C494        N499   1.438       .  S
C495        C496   1.402       .  A
C495        H500   1.084       .  S
C496        C501   1.487       .  S
C496        C497   1.410       .  A
C497        C498   1.408       .  A
C497        N502   1.438       .  S
C498        H503   1.083       .  S
N499        H519   1.046       .  S
N499        H520   1.046       .  S
C501        C504   1.402       .  A
C501        C508   1.408       .  A
N502        H517   1.046       .  S
N502        H518   1.046       .  S
C504        C505   1.407       .  A
C504        H509   1.084       .  S
C505        C506   1.417       .  A
C505        N510   1.438       .  S
C506        C507   1.410       .  A
C507        C508   1.407       .  A
C507        H511   1.083       .  S
C508        N512   1.438       .  S
N510        H513   1.045       .  S
N510        H514   1.046       .  S
N512        H515   1.046       .  S
N512        H516   1.045       .  S
C521        C522   1.417       .  A
C521        C526   1.408       .  A
C522        C523   1.407       .  A
C522        N527   1.438       .  S
C523        C524   1.402       .  A
C523        H528   1.084       .  S
C524        C529   1.485       .  S
C524        C525   1.408       .  A
C525        C526   1.406       .  A
C525        N530   1.438       .  S
C526        H531   1.083       .  S
N527        H547   1.045       .  S
N527        H548   1.046       .  S
C529        C532   1.404       .  A
C529        C536   1.408       .  A
N530        H545   1.046       .  S
N530        H546   1.046       .  S
C532        C533   1.409       .  A
C532        H537   1.084       .  S
C533        C534   1.413       .  A
C533        N538   1.437       .  S
C534        C535   1.408       .  A
C535        C536   1.404       .  A
C535        H539   1.084       .  S
C536        N540   1.438       .  S
N538        H541   1.046       .  S
N538        H542   1.045       .  S
N540        H543   1.046       .  S
N540        H544   1.046       .  S
C549        C550   1.416   1_554  A
C549        C554   1.411       .  A
C550        C551   1.410       .  A
C550        N555   1.437       .  S
C551        C552   1.402   1_556  A
C551        H556   1.084       .  S
C552        C557   1.480   1_554  S
C552        C553   1.405       .  A
C553        C554   1.402       .  A
C553        N558   1.439       .  S
C554        H559   1.083       .  S
N555        H575   1.046       .  S
N555        H576   1.046       .  S
C557        C560   1.399       .  A
C557        C564   1.408       .  A
N558        H573   1.046       .  S
N558        H574   1.046       .  S
C560        C561   1.403       .  A
C560        H565   1.084       .  S
C561        C562   1.418       .  A
C561        N566   1.433   1_655  S
C562        C563   1.408       .  A
C563        C564   1.407       .  A
C563        H567   1.083       .  S
C564        N568   1.438   1_556  S
N566        H569   1.046       .  S
N566        H570   1.046   1_556  S
N568        H571   1.046       .  S
N568        H572   1.046       .  S
C577        C578   1.416       .  A
C577        C582   1.407       .  A
C578        C579   1.409       .  A
C578        N583   1.438       .  S
C579        C580   1.406       .  A
C579        H584   1.084       .  S
C580        C585   1.494       .  S
C580        C581   1.412       .  A
C581        C582   1.405       .  A
C581        N586   1.439       .  S
C582        H587   1.083       .  S
N583        H603   1.046       .  S
N583        H604   1.046       .  S
C585        C588   1.408       .  A
C585        C592   1.412       .  A
N586        H601   1.046       .  S
N586        H602   1.046       .  S
C588        C589   1.413       .  A
C588        H593   1.083       .  S
C589        C590   1.415       .  A
C589        N594   1.437       .  S
C590        C591   1.408       .  A
C591        C592   1.399       .  A
C591        H595   1.083       .  S
C592        N596   1.440       .  S
N594        H597   1.046       .  S
N594        H598   1.045       .  S
N596        H599   1.046       .  S
N596        H600   1.046       .  S
C605        C606   1.409       .  A
C605        C610   1.405   1_655  A
C606        C607   1.403       .  A
C606        N611   1.438       .  S
C607        C608   1.404   1_655  A
C607        H612   1.084       .  S
C608        C613   1.492       .  S
C608        C609   1.413       .  A
C609        C610   1.413       .  A
C609        N614   1.437       .  S
C610        H615   1.084       .  S
N611        H631   1.045       .  S
N611        H632   1.046       .  S
C613        C616   1.407       .  A
C613        C620   1.408       .  A
N614        H629   1.046       .  S
N614        H630   1.046       .  S
C616        C617   1.414       .  A
C616        H621   1.083       .  S
C617        C618   1.414       .  A
C617        N622   1.437       .  S
C618        C619   1.407       .  A
C619        C620   1.403       .  A
C619        H623   1.084       .  S
C620        N624   1.438   1_455  S
N622        H625   1.045       .  S
N622        H626   1.046       .  S
N624        H627   1.046       .  S
N624        H628   1.046       .  S
C633        C634   1.416       .  A
C633        C638   1.405       .  A
C634        C635   1.400       .  A
C634        N639   1.439       .  S
C635        C636   1.397       .  A
C635        H640   1.084       .  S
C636        C641   1.479   1_455  S
C636        C637   1.410       .  A
C637        C638   1.412       .  A
C637        N642   1.436   1_455  S
C638        H643   1.083       .  S
N639        H659   1.045       .  S
N639        H660   1.046       .  S
C641        C644   1.398       .  A
C641        C648   1.412       .  A
N642        H657   1.046       .  S
N642        H658   1.045       .  S
C644        C645   1.404       .  A
C644        H649   1.084   1_655  S
C645        C646   1.414       .  A
C645        N650   1.438       .  S
C646        C647   1.403       .  A
C647        C648   1.410       .  A
C647        H651   1.084       .  S
C648        N652   1.437       .  S
N650        H653   1.045   1_655  S
N650        H654   1.046       .  S
N652        H655   1.046       .  S
N652        H656   1.045       .  S
C661        C662   1.416       .  A
C661        C666   1.412   1_554  A
C662        C663   1.407       .  A
C662        N667   1.437       .  S
C663        C664   1.400       .  A
C663        H668   1.084       .  S
C664        C669   1.472       .  S
C664        C665   1.403   1_554  A
C665        C666   1.400       .  A
C665        N670   1.439       .  S
C666        H671   1.083       .  S
N667        H687   1.045       .  S
N667        H688   1.046       .  S
C669        C672   1.400       .  A
C669        C676   1.405       .  A
N670        H685   1.046       .  S
N670        H686   1.045       .  S
C672        C673   1.403       .  A
C672        H677   1.084       .  S
C673        C674   1.415       .  A
C673        N678   1.438       .  S
C674        C675   1.407       .  A
C675        C676   1.403       .  A
C675        H679   1.084       .  S
C676        N680   1.438       .  S
N678        H681   1.046       .  S
N678        H682   1.045       .  S
N680        H683   1.046       .  S
N680        H684   1.045       .  S
C689        C690   1.415       .  A
C689        C694   1.406       .  A
C690        C691   1.410       .  A
C690        N695   1.438       .  S
C691        C692   1.404       .  A
C691        H696   1.084       .  S
C692        C697   1.492       .  S
C692        C693   1.410       .  A
C693        C694   1.410       .  A
C693        N698   1.437   1_554  S
C694        H699   1.084       .  S
N695        H715   1.046       .  S
N695        H716   1.046       .  S
C697        C700   1.405       .  A
C697        C704   1.407   1_554  A
N698        H713   1.046       .  S
N698        H714   1.046       .  S
C700        C701   1.415       .  A
C700        H705   1.084       .  S
C701        C702   1.419   1_554  A
C701        N706   1.437       .  S
C702        C703   1.411       .  A
C703        C704   1.406       .  A
C703        H707   1.083       .  S
C704        N708   1.438       .  S
N706        H709   1.046       .  S
N706        H710   1.046       .  S
N708        H711   1.046       .  S
N708        H712   1.046       .  S
C717        C718   1.414       .  A
C717        C722   1.412       .  A
C718        C719   1.412       .  A
C718        N723   1.437       .  S
C719        C720   1.407       .  A
C719        H724   1.084       .  S
C720        C725   1.483       .  S
C720        C721   1.405   1_545  A
C721        C722   1.398   1_565  A
C721        N726   1.439       .  S
C722        H727   1.083   1_545  S
N723        H743   1.046       .  S
N723        H744   1.046       .  S
C725        C728   1.408   1_545  A
C725        C732   1.405       .  A
N726        H741   1.046       .  S
N726        H742   1.046       .  S
C728        C729   1.413       .  A
C728        H733   1.083       .  S
C729        C730   1.411       .  A
C729        N734   1.437       .  S
C730        C731   1.409       .  A
C731        C732   1.397   1_565  A
C731        H735   1.084       .  S
C732        N736   1.439       .  S
N734        H737   1.046       .  S
N734        H738   1.046       .  S
N736        H739   1.046       .  S
N736        H740   1.046       .  S
C745        C746   1.412   1_565  A
C745        C750   1.406       .  A
C746        C747   1.414   1_545  A
C746        N751   1.437       .  S
C747        C748   1.406       .  A
C747        H752   1.083       .  S
C748        C753   1.482       .  S
C748        C749   1.405       .  A
C749        C750   1.401       .  A
C749        N754   1.438       .  S
C750        H755   1.084       .  S
N751        H771   1.045       .  S
N751        H772   1.045       .  S
C753        C756   1.400       .  A
C753        C760   1.410       .  A
N754        H769   1.046       .  S
N754        H770   1.045       .  S
C756        C757   1.402       .  A
C756        H761   1.084       .  S
C757        C758   1.414       .  A
C757        N762   1.439       .  S
C758        C759   1.405       .  A
C759        C760   1.412       .  A
C759        H763   1.084       .  S
C760        N764   1.436       .  S
N762        H765   1.046       .  S
N762        H766   1.046       .  S
N764        H767   1.046       .  S
N764        H768   1.046       .  S
C773        C774   1.418       .  A
C773        C778   1.409       .  A
C774        C775   1.400       .  A
C774        N779   1.432       .  S
C775        C776   1.402       .  A
C775        H780   1.084       .  S
C776        C781   1.479       .  S
C776        C777   1.406       .  A
C777        C778   1.403       .  A
C777        N782   1.438       .  S
C778        H783   1.084   1_655  S
N779        H799   1.044       .  S
N779        H800   1.046       .  S
C781        C784   1.403       .  A
C781        C788   1.406       .  A
N782        H797   1.046       .  S
N782        H798   1.045       .  S
C784        C785   1.408       .  A
C784        H789   1.084       .  S
C785        C786   1.414       .  A
C785        N790   1.437       .  S
C786        C787   1.407       .  A
C787        C788   1.402       .  A
C787        H791   1.084       .  S
C788        N792   1.438       .  S
N790        H793   1.046       .  S
N790        H794   1.046       .  S
N792        H795   1.046       .  S
N792        H796   1.045       .  S
C801        C802   1.411       .  A
C801        C806   1.399       .  A
C802        C803   1.400       .  A
C802        N807   1.433       .  S
C803        C804   1.400       .  A
C803        H808   1.084       .  S
C804        C809   1.478       .  S
C804        C805   1.412       .  A
C805        C806   1.404       .  A
C805        N810   1.437       .  S
C806        H811   1.084       .  S
N807        H827   1.047       .  S
N807        H828   1.045       .  S
C809        C812   1.399       .  A
C809        C816   1.410       .  A
N810        H825   1.046       .  S
N810        H826   1.045       .  S
C812        C813   1.397   1_455  A
C812        H817   1.084       .  S
C813        C814   1.416       .  A
C813        N818   1.439       .  S
C814        C815   1.405   1_655  A
C815        C816   1.408       .  A
C815        H819   1.084       .  S
C816        N820   1.437       .  S
N818        H821   1.046       .  S
N818        H822   1.046       .  S
N820        H823   1.045       .  S
N820        H824   1.046       .  S
C829        C830   1.412   1_455  A
C829        C834   1.402       .  A
C830        C831   1.403       .  A
C830        N835   1.439       .  S
C831        C832   1.402       .  A
C831        H836   1.084       .  S
C832        C837   1.493       .  S
C832        C833   1.417   1_655  A
C833        C834   1.412       .  A
C833        N838   1.437       .  S
C834        H839   1.084       .  S
N835        H855   1.046       .  S
N835        H856   1.045       .  S
C837        C840   1.402       .  A
C837        C844   1.415       .  A
N838        H853   1.046       .  S
N838        H854   1.046       .  S
C840        C841   1.407       .  A
C840        H845   1.084       .  S
C841        C842   1.416       .  A
C841        N846   1.438       .  S
C842        C843   1.403       .  A
C843        C844   1.409       .  A
C843        H847   1.084       .  S
C844        N848   1.438       .  S
N846        H849   1.046       .  S
N846        H850   1.046       .  S
N848        H851   1.046       .  S
N848        H852   1.046   1_655  S
C857        C858   1.409       .  A
C857        C862   1.406       .  A
C858        C859   1.406       .  A
C858        N863   1.432       .  S
C859        C860   1.402       .  A
C859        H864   1.084       .  S
C860        C865   1.470       .  S
C860        C861   1.407       .  A
C861        C862   1.396       .  A
C861        N866   1.440       .  S
C862        H867   1.084       .  S
N863        H883   1.045       .  S
N863        H884   1.046       .  S
C865        C868   1.396       .  A
C865        C872   1.408       .  A
N866        H881   1.046       .  S
N866        H882   1.044       .  S
C868        C869   1.399       .  A
C868        H873   1.084       .  S
C869        C870   1.419       .  A
C869        N874   1.439       .  S
C870        C871   1.406       .  A
C871        C872   1.406       .  A
C871        H875   1.083       .  S
C872        N876   1.438       .  S
N874        H877   1.046       .  S
N874        H878   1.046       .  S
N876        H879   1.046       .  S
N876        H880   1.045       .  S
C885        C886   1.417       .  A
C885        C890   1.408       .  A
C886        C887   1.408       .  A
C886        N891   1.438       .  S
C887        C888   1.403       .  A
C887        H892   1.084       .  S
C888        C893   1.492       .  S
C888        C889   1.411       .  A
C889        C890   1.409       .  A
C889        N894   1.438       .  S
C890        H895   1.083   1_545  S
N891        H911   1.046       .  S
N891        H912   1.045       .  S
C893        C896   1.402       .  A
C893        C900   1.412       .  A
N894        H909   1.046       .  S
N894        H910   1.046       .  S
C896        C897   1.407       .  A
C896        H901   1.084       .  S
C897        C898   1.417       .  A
C897        N902   1.438       .  S
C898        C899   1.407       .  A
C899        C900   1.411       .  A
C899        H903   1.083       .  S
C900        N904   1.437       .  S
N902        H905   1.046       .  S
N902        H906   1.046       .  S
N904        H907   1.046       .  S
N904        H908   1.046       .  S
C913        C914   1.412       .  A
C913        C918   1.404       .  A
C914        C915   1.415       .  A
C914        N919   1.436       .  S
C915        C916   1.406       .  A
C915        H920   1.083       .  S
C916        C921   1.497       .  S
C916        C917   1.412       .  A
C917        C918   1.410       .  A
C917        N922   1.438       .  S
C918        H923   1.084       .  S
N919        H939   1.045       .  S
N919        H940   1.046   1_554  S
C921        C924   1.405       .  A
C921        C928   1.413   1_554  A
N922        H937   1.045       .  S
N922        H938   1.046       .  S
C924        C925   1.412       .  A
C924        H929   1.084       .  S
C925        C926   1.412   1_554  A
C925        N930   1.432       .  S
C926        C927   1.405       .  A
C927        C928   1.411       .  A
C927        H931   1.084       .  S
C928        N932   1.438       .  S
N930        H933   1.045       .  S
N930        H934   1.046       .  S
N932        H935   1.045       .  S
N932        H936   1.046       .  S
C941        C942   1.418       .  A
C941        C946   1.408       .  A
C942        C943   1.416       .  A
C942        N947   1.437       .  S
C943        C944   1.404       .  A
C943        H948   1.083       .  S
C944        C949   1.494       .  S
C944        C945   1.410       .  A
C945        C946   1.408       .  A
C945        N950   1.438       .  S
C946        H951   1.084       .  S
N947        H967   1.045       .  S
N947        H968   1.046       .  S
C949        C952   1.404       .  A
C949        C956   1.411       .  A
N950        H965   1.046       .  S
N950        H966   1.045       .  S
C952        C953   1.412       .  A
C952        H957   1.084       .  S
C953        C954   1.415       .  A
C953        N958   1.432       .  S
C954        C955   1.408       .  A
C955        C956   1.409       .  A
C955        H959   1.084       .  S
C956        N960   1.438       .  S
N958        H961   1.046       .  S
N958        H962   1.045       .  S
N960        H963   1.046       .  S
N960        H964   1.045       .  S
C969        C970   1.413       .  A
C969        C974   1.407       .  A
C970        C971   1.400       .  A
C970        N975   1.432       .  S
C971        C972   1.401       .  A
C971        H976   1.084       .  S
C972        C977   1.496       .  S
C972        C973   1.416       .  A
C973        C974   1.417       .  A
C973        N978   1.436       .  S
C974        H979   1.083       .  S
N975        H995   1.046       .  S
N975        H996   1.045       .  S
C977        C980   1.402       .  A
C977        C984   1.414       .  A
N978        H993   1.046       .  S
N978        H994   1.046       .  S
C980        C981   1.405       .  A
C980        H985   1.084       .  S
C981        C982   1.415       .  A
C981        N986   1.433       .  S
C982        C983   1.406       .  A
C983        C984   1.412       .  A
C983        H987   1.083       .  S
C984        N988   1.437       .  S
N986        H989   1.046       .  S
N986        H990   1.045       .  S
N988        H991   1.046       .  S
N988        H992   1.046       .  S
C997        C998   1.420       .  A
C997       C1002   1.408       .  A
C998        C999   1.412       .  A
C998       N1003   1.437       .  S
C999       C1000   1.401       .  A
C999       H1004   1.084       .  S
C1000      C1005   1.487       .  S
C1000      C1001   1.409       .  A
C1001      C1002   1.407       .  A
C1001      N1006   1.438       .  S
C1002      H1007   1.084       .  S
N1003      H1023   1.045       .  S
N1003      H1024   1.045       .  S
C1005      C1008   1.401       .  A
C1005      C1012   1.410       .  A
N1006      H1021   1.046       .  S
N1006      H1022   1.045       .  S
C1008      C1009   1.407       .  A
C1008      H1013   1.084       .  S
C1009      C1010   1.416       .  A
C1009      N1014   1.438       .  S
C1010      C1011   1.407       .  A
C1011      C1012   1.412       .  A
C1011      H1015   1.083       .  S
C1012      N1016   1.437       .  S
N1014      H1017   1.046       .  S
N1014      H1018   1.045       .  S
N1016      H1019   1.045       .  S
N1016      H1020   1.045       .  S
C1025      C1026   1.419       .  A
C1025      C1030   1.408       .  A
C1026      C1027   1.411       .  A
C1026      N1031   1.438       .  S
C1027      C1028   1.403       .  A
C1027      H1032   1.084       .  S
C1028      C1033   1.486       .  S
C1028      C1029   1.408       .  A
C1029      C1030   1.402       .  A
C1029      N1034   1.438       .  S
C1030      H1035   1.083       .  S
N1031      H1051   1.046       .  S
N1031      H1052   1.046       .  S
C1033      C1036   1.400       .  A
C1033      C1040   1.413       .  A
N1034      H1049   1.045       .  S
N1034      H1050   1.046       .  S
C1036      C1037   1.398       .  A
C1036      H1041   1.084       .  S
C1037      C1038   1.411       .  A
C1037      N1042   1.433       .  S
C1038      C1039   1.405       .  A
C1039      C1040   1.413       .  A
C1039      H1043   1.084       .  S
C1040      N1044   1.437       .  S
N1042      H1045   1.046       .  S
N1042      H1046   1.046       .  S
N1044      H1047   1.045       .  S
N1044      H1048   1.046       .  S
C1053      C1054   1.413       .  A
C1053      C1058   1.403       .  A
C1054      C1055   1.418       .  A
C1054      N1059   1.437       .  S
C1055      C1056   1.409       .  A
C1055      H1060   1.083       .  S
C1056      C1061   1.496       .  S
C1056      C1057   1.411       .  A
C1057      C1058   1.403       .  A
C1057      N1062   1.438       .  S
C1058      H1063   1.084       .  S
N1059      H1079   1.045       .  S
N1059      H1080   1.046       .  S
C1061      C1064   1.405       .  A
C1061      C1068   1.412       .  A
N1062      H1077   1.046       .  S
N1062      H1078   1.045       .  S
C1064      C1065   1.407       .  A
C1064      H1069   1.084       .  S
C1065      C1066   1.410       .  A
C1065      N1070   1.437       .  S
C1066      C1067   1.408       .  A
C1067      C1068   1.414       .  A
C1067      H1071   1.084       .  S
C1068      N1072   1.437       .  S
N1070      H1073   1.046       .  S
N1070      H1074   1.046       .  S
N1072      H1075   1.046       .  S
N1072      H1076   1.046       .  S
C1081      C1082   1.416       .  A
C1081      C1086   1.404       .  A
C1082      C1083   1.406       .  A
C1082      N1087   1.437       .  S
C1083      C1084   1.402       .  A
C1083      H1088   1.084       .  S
C1084      C1089   1.497       .  S
C1084      C1085   1.417       .  A
C1085      C1086   1.413       .  A
C1085      N1090   1.438       .  S
C1086      H1091   1.083       .  S
N1087      H1107   1.046       .  S
N1087      H1108   1.046       .  S
C1089      C1092   1.404       .  A
C1089      C1096   1.418       .  A
N1090      H1105   1.046       .  S
N1090      H1106   1.046       .  S
C1092      C1093   1.408       .  A
C1092      H1097   1.083       .  S
C1093      C1094   1.412       .  A
C1093      N1098   1.438       .  S
C1094      C1095   1.400       .  A
C1095      C1096   1.411       .  A
C1095      H1099   1.084       .  S
C1096      N1100   1.438       .  S
N1098      H1101   1.046       .  S
N1098      H1102   1.046       .  S
N1100      H1103   1.046       .  S
N1100      H1104   1.046       .  S
C1109      C1110   1.416       .  A
C1109      C1114   1.409   1_556  A
C1110      C1111   1.407       .  A
C1110      N1115   1.438       .  S
C1111      C1112   1.401   1_556  A
C1111      H1116   1.084       .  S
C1112      C1117   1.487       .  S
C1112      C1113   1.409       .  A
C1113      C1114   1.412       .  A
C1113      N1118   1.437       .  S
C1114      H1119   1.083       .  S
N1115      H1135   1.046       .  S
N1115      H1136   1.046       .  S
C1117      C1120   1.401       .  A
C1117      C1124   1.409       .  A
N1118      H1133   1.045       .  S
N1118      H1134   1.045       .  S
C1120      C1121   1.412       .  A
C1120      H1125   1.084   1_554  S
C1121      C1122   1.419       .  A
C1121      N1126   1.437       .  S
C1122      C1123   1.407       .  A
C1123      C1124   1.407       .  A
C1123      H1127   1.084       .  S
C1124      N1128   1.438       .  S
N1126      H1129   1.046   1_554  S
N1126      H1130   1.045       .  S
N1128      H1131   1.046       .  S
N1128      H1132   1.045       .  S
C1137      C1138   1.420       .  A
C1137      C1142   1.409       .  A
C1138      C1139   1.412       .  A
C1138      N1143   1.437       .  S
C1139      C1140   1.402       .  A
C1139      H1144   1.084       .  S
C1140      C1145   1.483       .  S
C1140      C1141   1.404       .  A
C1141      C1142   1.398       .  A
C1141      N1146   1.433       .  S
C1142      H1147   1.083       .  S
N1143      H1163   1.045       .  S
N1143      H1164   1.046       .  S
C1145      C1148   1.400       .  A
C1145      C1152   1.414       .  A
N1146      H1161   1.046       .  S
N1146      H1162   1.045       .  S
C1148      C1149   1.404       .  A
C1148      H1153   1.084       .  S
C1149      C1150   1.418       .  A
C1149      N1154   1.437       .  S
C1150      C1151   1.407       .  A
C1151      C1152   1.403       .  A
C1151      H1155   1.083       .  S
C1152      N1156   1.437       .  S
N1154      H1157   1.046       .  S
N1154      H1158   1.044       .  S
N1156      H1159   1.046       .  S
N1156      H1160   1.043       .  S
C1165      C1166   1.416       .  A
C1165      C1170   1.406       .  A
C1166      C1167   1.406       .  A
C1166      N1171   1.433       .  S
C1167      C1168   1.400       .  A
C1167      H1172   1.084       .  S
C1168      C1173   1.490       .  S
C1168      C1169   1.412       .  A
C1169      C1170   1.413       .  A
C1169      N1174   1.437   1_554  S
C1170      H1175   1.083       .  S
N1171      H1191   1.046       .  S
N1171      H1192   1.046       .  S
C1173      C1176   1.405       .  A
C1173      C1180   1.414   1_554  A
N1174      H1189   1.046       .  S
N1174      H1190   1.045       .  S
C1176      C1177   1.413       .  A
C1176      H1181   1.084       .  S
C1177      C1178   1.417       .  A
C1177      N1182   1.437       .  S
C1178      C1179   1.411   1_554  A
C1179      C1180   1.403       .  A
C1179      H1183   1.084       .  S
C1180      N1184   1.439       .  S
N1182      H1185   1.046       .  S
N1182      H1186   1.046       .  S
N1184      H1187   1.047       .  S
N1184      H1188   1.042       .  S
C1193      C1194   1.416       .  A
C1193      C1198   1.407       .  A
C1194      C1195   1.414   1_554  A
C1194      N1199   1.432   1_554  S
C1195      C1196   1.405   1_556  A
C1195      H1200   1.084       .  S
C1196      C1201   1.496   1_554  S
C1196      C1197   1.411       .  A
C1197      C1198   1.410       .  A
C1197      N1202   1.438       .  S
C1198      H1203   1.084       .  S
N1199      H1219   1.046       .  S
N1199      H1220   1.045       .  S
C1201      C1204   1.405   1_556  A
C1201      C1208   1.412       .  A
N1202      H1217   1.046       .  S
N1202      H1218   1.045       .  S
C1204      C1205   1.414       .  A
C1204      H1209   1.083       .  S
C1205      C1206   1.411   1_554  A
C1205      N1210   1.437       .  S
C1206      C1207   1.404       .  A
C1207      C1208   1.411       .  A
C1207      H1211   1.084       .  S
C1208      N1212   1.438       .  S
N1210      H1213   1.046       .  S
N1210      H1214   1.045       .  S
N1212      H1215   1.045       .  S
N1212      H1216   1.046       .  S
C1221      C1222   1.417       .  A
C1221      C1226   1.409   1_554  A
C1222      C1223   1.400       .  A
C1222      N1227   1.433       .  S
C1223      C1224   1.397       .  A
C1223      H1228   1.084       .  S
C1224      C1229   1.475   1_554  S
C1224      C1225   1.407   1_554  A
C1225      C1226   1.407       .  A
C1225      N1230   1.437       .  S
C1226      H1231   1.083       .  S
N1227      H1247   1.046       .  S
N1227      H1248   1.046       .  S
C1229      C1232   1.397       .  A
C1229      C1236   1.408   1_556  A
N1230      H1245   1.046       .  S
N1230      H1246   1.046       .  S
C1232      C1233   1.402       .  A
C1232      H1237   1.084       .  S
C1233      C1234   1.417       .  A
C1233      N1238   1.438       .  S
C1234      C1235   1.407       .  A
C1235      C1236   1.408   1_556  A
C1235      H1239   1.084   1_556  S
C1236      N1240   1.437       .  S
N1238      H1241   1.046       .  S
N1238      H1242   1.046       .  S
N1240      H1243   1.046       .  S
N1240      H1244   1.045       .  S
C1249      C1250   1.412       .  A
C1249      C1254   1.407       .  A
C1250      C1251   1.410       .  A
C1250      N1255   1.437       .  S
C1251      C1252   1.404       .  A
C1251      H1256   1.084       .  S
C1252      C1257   1.490       .  S
C1252      C1253   1.409       .  A
C1253      C1254   1.410       .  A
C1253      N1258   1.437       .  S
C1254      H1259   1.084       .  S
N1255      H1275   1.046       .  S
N1255      H1276   1.046       .  S
C1257      C1260   1.403       .  A
C1257      C1264   1.410       .  A
N1258      H1273   1.046       .  S
N1258      H1274   1.045       .  S
C1260      C1261   1.408       .  A
C1260      H1265   1.084       .  S
C1261      C1262   1.411       .  A
C1261      N1266   1.438       .  S
C1262      C1263   1.405       .  A
C1263      C1264   1.412       .  A
C1263      H1267   1.084       .  S
C1264      N1268   1.437       .  S
N1266      H1269   1.046       .  S
N1266      H1270   1.045       .  S
N1268      H1271   1.045       .  S
N1268      H1272   1.046       .  S
C1277      C1278   1.414       .  A
C1277      C1282   1.405       .  A
C1278      C1279   1.401       .  A
C1278      N1283   1.433       .  S
C1279      C1280   1.401       .  A
C1279      H1284   1.084       .  S
C1280      C1285   1.491       .  S
C1280      C1281   1.414       .  A
C1281      C1282   1.413       .  A
C1281      N1286   1.437       .  S
C1282      H1287   1.083       .  S
N1283      H1303   1.045       .  S
N1283      H1304   1.046       .  S
C1285      C1288   1.404       .  A
C1285      C1292   1.410       .  A
N1286      H1301   1.045       .  S
N1286      H1302   1.046       .  S
C1288      C1289   1.412       .  A
C1288      H1293   1.084       .  S
C1289      C1290   1.418       .  A
C1289      N1294   1.437       .  S
C1290      C1291   1.408       .  A
C1291      C1292   1.405       .  A
C1291      H1295   1.083       .  S
C1292      N1296   1.438       .  S
N1294      H1297   1.046       .  S
N1294      H1298   1.045       .  S
N1296      H1299   1.045       .  S
N1296      H1300   1.046       .  S
C1305      C1306   1.413       .  A
C1305      C1310   1.409       .  A
C1306      C1307   1.412       .  A
C1306      N1311   1.437       .  S
C1307      C1308   1.409       .  A
C1307      H1312   1.083       .  S
C1308      C1313   1.497       .  S
C1308      C1309   1.410       .  A
C1309      C1310   1.406       .  A
C1309      N1314   1.438       .  S
C1310      H1315   1.084       .  S
N1311      H1331   1.045       .  S
N1311      H1332   1.046       .  S
C1313      C1316   1.409       .  A
C1313      C1320   1.412       .  A
N1314      H1329   1.046       .  S
N1314      H1330   1.045       .  S
C1316      C1317   1.411       .  A
C1316      H1321   1.083       .  S
C1317      C1318   1.407       .  A
C1317      N1322   1.436       .  S
C1318      C1319   1.404       .  A
C1319      C1320   1.407       .  A
C1319      H1323   1.084       .  S
C1320      N1324   1.438       .  S
N1322      H1325   1.046       .  S
N1322      H1326   1.045       .  S
N1324      H1327   1.046       .  S
N1324      H1328   1.046       .  S
C1333      C1334   1.415       .  A
C1333      C1338   1.406       .  A
C1334      C1335   1.403       .  A
C1334      N1339   1.439       .  S
C1335      C1336   1.401       .  A
C1335      H1340   1.084       .  S
C1336      C1341   1.488       .  S
C1336      C1337   1.412       .  A
C1337      C1338   1.411       .  A
C1337      N1342   1.437       .  S
C1338      H1343   1.084       .  S
N1339      H1359   1.046       .  S
N1339      H1360   1.046       .  S
C1341      C1344   1.401       .  A
C1341      C1348   1.415       .  A
N1342      H1357   1.046       .  S
N1342      H1358   1.045       .  S
C1344      C1345   1.402       .  A
C1344      H1349   1.084       .  S
C1345      C1346   1.412       .  A
C1345      N1350   1.433       .  S
C1346      C1347   1.402       .  A
C1347      C1348   1.410       .  A
C1347      H1351   1.084       .  S
C1348      N1352   1.437       .  S
N1350      H1353   1.046       .  S
N1350      H1354   1.046       .  S
N1352      H1355   1.046       .  S
N1352      H1356   1.045       .  S
C1361      C1362   1.412       .  A
C1361      C1366   1.404       .  A
C1362      C1363   1.405       .  A
C1362      N1367   1.438       .  S
C1363      C1364   1.403       .  A
C1363      H1368   1.083       .  S
C1364      C1369   1.501       .  S
C1364      C1365   1.417       .  A
C1365      C1366   1.416       .  A
C1365      N1370   1.437       .  S
C1366      H1371   1.083       .  S
N1367      H1387   1.046       .  S
N1367      H1388   1.045       .  S
C1369      C1372   1.404       .  A
C1369      C1376   1.414       .  A
N1370      H1385   1.046       .  S
N1370      H1386   1.045       .  S
C1372      C1373   1.409       .  A
C1372      H1377   1.083       .  S
C1373      C1374   1.419       .  A
C1373      N1378   1.438       .  S
C1374      C1375   1.408       .  A
C1375      C1376   1.413       .  A
C1375      H1379   1.083       .  S
C1376      N1380   1.437       .  S
N1378      H1381   1.046       .  S
N1378      H1382   1.046       .  S
N1380      H1383   1.045       .  S
N1380      H1384   1.046       .  S
C1389      C1390   1.419       .  A
C1389      C1394   1.408       .  A
C1390      C1391   1.414       .  A
C1390      N1395   1.437       .  S
C1391      C1392   1.402       .  A
C1391      H1396   1.083       .  S
C1392      C1397   1.487       .  S
C1392      C1393   1.407       .  A
C1393      C1394   1.403       .  A
C1393      N1398   1.438       .  S
C1394      H1399   1.083       .  S
N1395      H1415   1.045       .  S
N1395      H1416   1.046       .  S
C1397      C1400   1.402       .  A
C1397      C1404   1.410       .  A
N1398      H1413   1.046       .  S
N1398      H1414   1.046       .  S
C1400      C1401   1.406       .  A
C1400      H1405   1.084       .  S
C1401      C1402   1.414       .  A
C1401      N1406   1.438       .  S
C1402      C1403   1.407       .  A
C1403      C1404   1.412       .  A
C1403      H1407   1.083       .  S
C1404      N1408   1.437       .  S
N1406      H1409   1.046       .  S
N1406      H1410   1.046       .  S
N1408      H1411   1.045       .  S
N1408      H1412   1.046       .  S
C1417      C1418   1.410       .  A
C1417      C1422   1.404       .  A
C1418      C1419   1.401       .  A
C1418      N1423   1.431       .  S
C1419      C1420   1.405       .  A
C1419      H1424   1.084       .  S
C1420      C1425   1.480       .  S
C1420      C1421   1.409       .  A
C1421      C1422   1.400       .  A
C1421      N1426   1.439       .  S
C1422      H1427   1.084       .  S
N1423      H1443   1.045       .  S
N1423      H1444   1.043       .  S
C1425      C1428   1.402       .  A
C1425      C1432   1.407       .  A
N1426      H1441   1.045       .  S
N1426      H1442   1.046       .  S
C1428      C1429   1.405       .  A
C1428      H1433   1.084       .  S
C1429      C1430   1.417       .  A
C1429      N1434   1.438       .  S
C1430      C1431   1.408       .  A
C1431      C1432   1.402       .  A
C1431      H1435   1.083       .  S
C1432      N1436   1.438       .  S
N1434      H1437   1.046       .  S
N1434      H1438   1.046       .  S
N1436      H1439   1.045       .  S
N1436      H1440   1.046       .  S
C1445      C1446   1.417       .  A
C1445      C1450   1.408       .  A
C1446      C1447   1.409       .  A
C1446      N1451   1.438       .  S
C1447      C1448   1.403       .  A
C1447      H1452   1.084       .  S
C1448      C1453   1.485       .  S
C1448      C1449   1.408       .  A
C1449      C1450   1.405       .  A
C1449      N1454   1.438       .  S
C1450      H1455   1.083       .  S
N1451      H1471   1.045       .  S
N1451      H1472   1.046       .  S
C1453      C1456   1.401       .  A
C1453      C1460   1.410       .  A
N1454      H1469   1.046       .  S
N1454      H1470   1.046       .  S
C1456      C1457   1.405       .  A
C1456      H1461   1.084       .  S
C1457      C1458   1.416       .  A
C1457      N1462   1.432       .  S
C1458      C1459   1.406       .  A
C1459      C1460   1.407       .  A
C1459      H1463   1.083       .  S
C1460      N1464   1.438       .  S
N1462      H1465   1.046       .  S
N1462      H1466   1.045       .  S
N1464      H1467   1.046       .  S
N1464      H1468   1.046       .  S
C1473      C1474   1.409       .  A
C1473      C1478   1.406       .  A
C1474      C1475   1.412       .  A
C1474      N1479   1.437       .  S
C1475      C1476   1.409       .  A
C1475      H1480   1.084       .  S
C1476      C1481   1.488       .  S
C1476      C1477   1.408       .  A
C1477      C1478   1.402       .  A
C1477      N1482   1.439       .  S
C1478      H1483   1.084       .  S
N1479      H1499   1.046       .  S
N1479      H1500   1.046       .  S
C1481      C1484   1.405       .  A
C1481      C1488   1.408       .  A
N1482      H1497   1.046       .  S
N1482      H1498   1.046       .  S
C1484      C1485   1.412       .  A
C1484      H1489   1.084       .  S
C1485      C1486   1.418       .  A
C1485      N1490   1.437       .  S
C1486      C1487   1.409       .  A
C1487      C1488   1.401       .  A
C1487      H1491   1.083       .  S
C1488      N1492   1.439       .  S
N1490      H1493   1.046       .  S
N1490      H1494   1.046       .  S
N1492      H1495   1.046       .  S
N1492      H1496   1.046       .  S
C1501      C1502   1.413       .  A
C1501      C1506   1.407       .  A
C1502      C1503   1.400       .  A
C1502      N1507   1.433       .  S
C1503      C1504   1.399       .  A
C1503      H1508   1.084       .  S
C1504      C1509   1.484       .  S
C1504      C1505   1.411       .  A
C1505      C1506   1.414       .  A
C1505      N1510   1.437       .  S
C1506      H1511   1.083       .  S
N1507      H1527   1.045       .  S
N1507      H1528   1.046       .  S
C1509      C1512   1.406       .  A
C1509      C1516   1.406       .  A
N1510      H1525   1.045       .  S
N1510      H1526   1.045       .  S
C1512      C1513   1.413       .  A
C1512      H1517   1.083       .  S
C1513      C1514   1.411       .  A
C1513      N1518   1.437       .  S
C1514      C1515   1.408       .  A
C1515      C1516   1.403       .  A
C1515      H1519   1.084       .  S
C1516      N1520   1.438       .  S
N1518      H1521   1.052       .  S
N1518      H1522   1.039       .  S
N1520      H1523   1.045       .  S
N1520      H1524   1.045       .  S
C1529      C1530   1.418   1_556  A
C1529      C1534   1.409       .  A
C1530      C1531   1.417       .  A
C1530      N1535   1.436       .  S
C1531      C1532   1.404       .  A
C1531      H1536   1.083       .  S
C1532      C1537   1.496       .  S
C1532      C1533   1.410   1_554  A
C1533      C1534   1.409       .  A
C1533      N1538   1.438       .  S
C1534      H1539   1.084       .  S
N1535      H1555   1.045       .  S
N1535      H1556   1.046       .  S
C1537      C1540   1.404       .  A
C1537      C1544   1.412       .  A
N1538      H1553   1.046       .  S
N1538      H1554   1.044       .  S
C1540      C1541   1.412       .  A
C1540      H1545   1.084       .  S
C1541      C1542   1.415       .  A
C1541      N1546   1.438       .  S
C1542      C1543   1.408       .  A
C1543      C1544   1.414       .  A
C1543      H1547   1.083       .  S
C1544      N1548   1.438   1_554  S
N1546      H1549   1.046       .  S
N1546      H1550   1.046       .  S
N1548      H1551   1.046       .  S
N1548      H1552   1.044       .  S
C1557      C1558   1.411   1_556  A
C1557      C1562   1.406       .  A
C1558      C1559   1.411       .  A
C1558      N1563   1.437       .  S
C1559      C1560   1.405       .  A
C1559      H1564   1.084       .  S
C1560      C1565   1.484       .  S
C1560      C1561   1.407   1_554  A
C1561      C1562   1.405       .  A
C1561      N1566   1.438       .  S
C1562      H1567   1.084       .  S
N1563      H1583   1.046       .  S
N1563      H1584   1.046       .  S
C1565      C1568   1.400   1_554  A
C1565      C1572   1.410       .  A
N1566      H1581   1.046       .  S
N1566      H1582   1.045       .  S
C1568      C1569   1.406       .  A
C1568      H1573   1.084       .  S
C1569      C1570   1.413   1_556  A
C1569      N1574   1.438       .  S
C1570      C1571   1.405       .  A
C1571      C1572   1.411       .  A
C1571      H1575   1.084       .  S
C1572      N1576   1.437       .  S
N1574      H1577   1.046       .  S
N1574      H1578   1.045       .  S
N1576      H1579   1.046       .  S
N1576      H1580   1.046       .  S
C1585      C1586   1.419       .  A
C1585      C1590   1.403       .  A
C1586      C1587   1.404       .  A
C1586      N1591   1.439       .  S
C1587      C1588   1.397       .  A
C1587      H1592   1.084       .  S
C1588      C1593   1.480       .  S
C1588      C1589   1.411       .  A
C1589      C1590   1.409       .  A
C1589      N1594   1.437       .  S
C1590      H1595   1.083       .  S
N1591      H1611   1.045       .  S
N1591      H1612   1.046       .  S
C1593      C1596   1.395       .  A
C1593      C1600   1.409       .  A
N1594      H1609   1.046       .  S
N1594      H1610   1.046       .  S
C1596      C1597   1.399       .  A
C1596      H1601   1.085       .  S
C1597      C1598   1.423       .  A
C1597      N1602   1.439       .  S
C1598      C1599   1.409       .  A
C1599      C1600   1.414       .  A
C1599      H1603   1.083       .  S
C1600      N1604   1.436       .  S
N1602      H1605   1.046       .  S
N1602      H1606   1.045       .  S
N1604      H1607   1.045       .  S
N1604      H1608   1.046       .  S
C1613      C1614   1.416       .  A
C1613      C1618   1.405       .  A
C1614      C1615   1.405       .  A
C1614      N1619   1.439       .  S
C1615      C1616   1.399       .  A
C1615      H1620   1.084       .  S
C1616      C1621   1.488       .  S
C1616      C1617   1.414       .  A
C1617      C1618   1.415       .  A
C1617      N1622   1.438       .  S
C1618      H1623   1.083       .  S
N1619      H1639   1.046       .  S
N1619      H1640   1.046       .  S
C1621      C1624   1.406       .  A
C1621      C1628   1.410       .  A
N1622      H1637   1.046       .  S
N1622      H1638   1.045       .  S
C1624      C1625   1.412       .  A
C1624      H1629   1.083       .  S
C1625      C1626   1.411       .  A
C1625      N1630   1.432       .  S
C1626      C1627   1.407       .  A
C1627      C1628   1.405       .  A
C1627      H1631   1.084       .  S
C1628      N1632   1.439       .  S
N1630      H1633   1.045       .  S
N1630      H1634   1.045       .  S
N1632      H1635   1.046       .  S
N1632      H1636   1.045       .  S
C1641      C1642   1.408       .  A
C1641      C1646   1.400       .  A
C1642      C1643   1.403       .  A
C1642      N1647   1.438       .  S
C1643      C1644   1.405       .  A
C1643      H1648   1.084       .  S
C1644      C1649   1.487       .  S
C1644      C1645   1.415       .  A
C1645      C1646   1.404       .  A
C1645      N1650   1.439       .  S
C1646      H1651   1.084       .  S
N1647      H1667   1.046       .  S
N1647      H1668   1.046       .  S
C1649      C1652   1.406       .  A
C1649      C1656   1.416       .  A
N1650      H1665   1.046       .  S
N1650      H1666   1.046       .  S
C1652      C1653   1.406       .  A
C1652      H1657   1.083       .  S
C1653      C1654   1.407       .  A
C1653      N1658   1.438       .  S
C1654      C1655   1.398       .  A
C1655      C1656   1.402       .  A
C1655      H1659   1.085       .  S
C1656      N1660   1.439       .  S
N1658      H1661   1.046       .  S
N1658      H1662   1.045       .  S
N1660      H1663   1.046       .  S
N1660      H1664   1.046       .  S
C1669      C1670   1.417       .  A
C1669      C1674   1.408       .  A
C1670      C1671   1.410       .  A
C1670      N1675   1.438       .  S
C1671      C1672   1.404       .  A
C1671      H1676   1.084       .  S
C1672      C1677   1.496       .  S
C1672      C1673   1.411       .  A
C1673      C1674   1.411       .  A
C1673      N1678   1.437       .  S
C1674      H1679   1.084       .  S
N1675      H1695   1.045       .  S
N1675      H1696   1.046       .  S
C1677      C1680   1.407       .  A
C1677      C1684   1.410   1_554  A
N1678      H1693   1.046       .  S
N1678      H1694   1.046       .  S
C1680      C1681   1.415       .  A
C1680      H1685   1.083       .  S
C1681      C1682   1.415       .  A
C1681      N1686   1.437       .  S
C1682      C1683   1.408   1_554  A
C1683      C1684   1.406       .  A
C1683      H1687   1.084       .  S
C1684      N1688   1.438       .  S
N1686      H1689   1.046       .  S
N1686      H1690   1.046       .  S
N1688      H1691   1.046       .  S
N1688      H1692   1.046       .  S
