geometry optimzed in LAMMPS
_audit_creation_date              2020-11-30 
_audit_creation_method            'lammps2cif' 
_symmetry_space_group_name_H-M    'P1' 
_symmetry_Int_Tables_number       1 
_symmetry_cell_setting            triclinic 
loop_ 
_symmetry_equiv_pos_as_xyz 
  x,y,z 
_cell_length_a                    42.98545558597075 
_cell_length_b                    42.98948659517282 
_cell_length_c                    28.29865091828189 
_cell_angle_alpha                 89.99723200781914 
_cell_angle_beta                  90.00052592791549 
_cell_angle_gamma                 120.04104987865499 
loop_ 
_atom_site_label 
_atom_site_type_symbol 
_atom_site_fract_x 
_atom_site_fract_y 
_atom_site_fract_z 
_atom_site_charge 
Fe1        Fe  0.05400759  0.33315769  0.30312094     1.65780
Fe2        Fe  0.06377890  0.39873757  0.37462774     1.73250
Fe3        Fe  0.13605346  0.39780144  0.33615383     1.54410
O4          O  0.13683877  0.35104811  0.31303671    -0.83050
O5          O  0.09175647  0.44987371  0.34602487    -0.81350
O6          O  0.08179880  0.31122857  0.33143616    -0.85550
O7          O  0.08840365  0.35338644  0.24565481    -0.80410
O8          O  0.13270428  0.38373707  0.40845272    -0.82180
O9          O  0.01605295  0.38008974  0.33010248    -0.84930
C10         C  0.11541180  0.38417143  0.23576780     0.95840
C11         C  0.11076337  0.31903688  0.31077660     1.03280
O12         O  0.08447133  0.37811180  0.33429749    -1.13910
O13         O  0.04343182  0.35345079  0.41369212    -0.76340
O14         O  0.01642682  0.31117334  0.35987012    -0.79830
O15         O  0.13527845  0.40773155  0.26628660    -0.80520
C16         C  0.01979106  0.32253829  0.40245288     0.94740
O17         O  0.02561836  0.35273436  0.26998619    -0.78470
O18         O  0.10643603  0.41575801  0.41956686    -0.83670
C19         C  0.12560588  0.46629875  0.35453566     0.97370
C20         C  0.11797754  0.39610385  0.43591191     1.03280
O21         O  0.14370002  0.44974997  0.35254347    -0.79310
C22         C  0.00645754  0.36317506  0.29010412     1.01580
Fe23       Fe  0.33558318  0.28431610  0.22007180     1.65780
Fe24       Fe  0.40158981  0.34077421  0.29088695     1.73250
Fe25       Fe  0.40036797  0.26722521  0.25294160     1.54410
O26         O  0.35367927  0.21959234  0.22981010    -0.83050
O27         O  0.45266922  0.36352475  0.26217749    -0.81350
O28         O  0.31391370  0.23468313  0.24854567    -0.85550
O29         O  0.35588945  0.27031379  0.16246812    -0.80410
O30         O  0.38633901  0.25671621  0.32522247    -0.82180
O31         O  0.38304538  0.36973381  0.24604942    -0.84930
C32         C  0.38667200  0.27410935  0.15251616     0.95840
C33         C  0.32166892  0.21359510  0.22768870     1.03280
O34         O  0.38065626  0.29910289  0.25105090    -1.13910
O35         O  0.35653714  0.31672674  0.33035436    -0.76340
O36         O  0.31357765  0.29963187  0.27698361    -0.79830
O37         O  0.41026489  0.27785685  0.18301475    -0.80520
C38         C  0.32523340  0.30828312  0.31936788     0.94740
O39         O  0.35469866  0.33217183  0.18678727    -0.78470
O40         O  0.41832508  0.31512791  0.33625943    -0.83670
C41         C  0.46896637  0.34607627  0.27118838     0.97360
C42         C  0.39868732  0.28387852  0.35261142     1.03280
O43         O  0.45232046  0.31142827  0.26943904    -0.79310
C44         C  0.36556633  0.36201348  0.20646993     1.01580
Fe45       Fe  0.28651478  0.45377999  0.13674562     1.65780
Fe46       Fe  0.34307891  0.44434991  0.20744573     1.73250
Fe47       Fe  0.26949744  0.37190265  0.16949637     1.54420
O48         O  0.22182214  0.37083937  0.14638513    -0.83050
O49         O  0.36581727  0.41609998  0.17860384    -0.81350
O50         O  0.23690685  0.42567208  0.16526198    -0.85550
O51         O  0.27255673  0.41950102  0.07909160    -0.80410
O52         O  0.25896188  0.37536005  0.24175621    -0.82180
O53         O  0.37203362  0.49184952  0.16260275    -0.84930
C54         C  0.27634076  0.39251898  0.06911648     0.95840
C55         C  0.21582531  0.39684375  0.14433361     1.03280
O56         O  0.30135513  0.42355081  0.16766922    -1.13910
O57         O  0.31922937  0.46547241  0.24701959    -0.76340
O58         O  0.30174744  0.49103527  0.19369451    -0.79830
O59         O  0.28012079  0.37268660  0.09958859    -0.80520
C60         C  0.31054375  0.48815152  0.23604114     0.94740
O61         O  0.33437540  0.48270946  0.10348308    -0.78470
O62         O  0.31738679  0.40191265  0.25280644    -0.83670
C63         C  0.34841273  0.38234459  0.18760420     0.97360
C64         C  0.28611930  0.39024660  0.26914417     1.03280
O65         O  0.31375618  0.36427473  0.18593274    -0.79310
C66         C  0.36427679  0.50164055  0.12308994     1.01580
Fe67       Fe  0.28658941  0.33306581  0.45253510     1.65780
Fe68       Fe  0.34296273  0.39905200  0.38166054     1.73250
Fe69       Fe  0.26942295  0.39780119  0.41963393     1.54410
O70         O  0.22180469  0.35108474  0.44271499    -0.83050
O71         O  0.36575862  0.45014585  0.41032901    -0.81350
O72         O  0.23695136  0.31134492  0.42402829    -0.85550
O73         O  0.27250598  0.35331359  0.01010928    -0.80410
O74         O  0.25891784  0.38378611  0.34734312    -0.82180
O75         O  0.37194254  0.38051754  0.42648590    -0.84930
C76         C  0.27630394  0.38409301  0.02005441     0.95840
C77         C  0.21582815  0.31908379  0.44483803     1.03280
O78         O  0.30133017  0.37813271  0.42155247    -1.13910
O79         O  0.31876869  0.35396835  0.34225498    -0.76340
O80         O  0.30202599  0.31111285  0.39567080    -0.79830
O81         O  0.28003809  0.40767894  0.98955672    -0.80520
C82         C  0.31057981  0.32274653  0.35326420     0.94740
O83         O  0.33444719  0.35226374  0.48584692    -0.78470
O84         O  0.31732362  0.41581048  0.33632582    -0.83670
C85         C  0.34828507  0.46642983  0.40138227     0.97360
C86         C  0.28608487  0.39616608  0.31995707     1.03280
O87         O  0.31363138  0.44976698  0.40317983    -0.79310
C88         C  0.36427493  0.36311349  0.46612379     1.01580
Fe89       Fe  0.17477618  0.22113727  0.46996059     1.65780
Fe90       Fe  0.10880509  0.16477186  0.04089541     1.73250
Fe91       Fe  0.10998837  0.23825553  0.50272533     1.54420
O92         O  0.15665396  0.28587313  0.47955436    -0.83050
O93         O  0.05773876  0.14195441  0.01213789    -0.81350
O94         O  0.19647680  0.27083755  0.49826524    -0.85550
O95         O  0.15446774  0.23507561  0.41229937    -0.80410
O96         O  0.12402643  0.24888010  0.07498661    -0.82180
O97         O  0.12736227  0.13575959  0.99619903    -0.84930
C98         C  0.12369274  0.23129561  0.40234504     0.95840
C99         C  0.18867438  0.29190259  0.47742088     1.03280
O100        O  0.12972478  0.20639598  0.00095759    -1.13910
O101        O  0.15386225  0.18886673  0.08036959    -0.76340
O102        O  0.19678279  0.20587888  0.02694935    -0.79830
O103        O  0.10009783  0.22754886  0.43283335    -0.80520
C104        C  0.18514994  0.19726401  0.06935435     0.94740
O105        O  0.15562490  0.17322197  0.43681430    -0.78470
O106        O  0.09204336  0.19048861  0.08610665    -0.83670
C107        C  0.04141740  0.15939448  0.02102883     0.97370
C108        C  0.11170000  0.22174678  0.10241694     1.03280
O109        O  0.05804670  0.19404112  0.01922136    -0.79310
C110        C  0.14480024  0.14341866  0.45659230     1.01580
Fe111      Fe  0.45634376  0.17235540  0.05305964     1.65780
Fe112      Fe  0.44658099  0.10661439  0.12435092     1.73250
Fe113      Fe  0.37431328  0.10765934  0.08594240     1.54410
O114        O  0.37348833  0.15438870  0.06286176    -0.83050
O115        O  0.41852918  0.05553871  0.09561684    -0.81350
O116        O  0.42849060  0.19422233  0.08135535    -0.85550
O117        O  0.42201740  0.15214888  0.49550850    -0.80410
O118        O  0.37765034  0.12168707  0.15822475    -0.82180
O119        O  0.49426482  0.12522418  0.07979507    -0.84930
C120        C  0.39500521  0.12137478  0.48558204     0.95840
C121        C  0.39953373  0.18641201  0.06068217     1.03280
O122        O  0.42590848  0.12737107  0.08416301    -1.13910
O123        O  0.46717948  0.15179781  0.16360419    -0.76340
O124        O  0.99379936  0.19431352  0.10991003    -0.79830
O125        O  0.37513491  0.09778633  0.01607244    -0.80520
C126        C  0.49055657  0.18285172  0.15243163     0.94740
O127        O  0.48484282  0.15290125  0.01993040    -0.78470
O128        O  0.40394570  0.08967439  0.16934873    -0.83670
C129        C  0.38470198  0.03913843  0.10421980     0.97360
C130        C  0.39240516  0.10934455  0.18567644     1.03280
O131        O  0.36663582  0.05571220  0.10230858    -0.79310
C132        C  0.50392465  0.14230673  0.03992288     1.01580
Fe133      Fe  0.22376052  0.05165114  0.38669935     1.65780
Fe134      Fe  0.16744362  0.06114708  0.45772036     1.73250
Fe135      Fe  0.24089390  0.13357045  0.41953336     1.54420
O136        O  0.28853264  0.13458698  0.39634408    -0.83050
O137        O  0.14454830  0.08928282  0.42895535    -0.81350
O138        O  0.27343116  0.07970654  0.41507892    -0.85550
O139        O  0.23771145  0.08594974  0.32908757    -0.80410
O140        O  0.25154736  0.13018484  0.49178770    -0.82180
O141        O  0.13842639  0.01355618  0.41302909    -0.84930
C142        C  0.23392778  0.11293719  0.31916263     0.95840
C143        C  0.29450968  0.10856823  0.39419146     1.03280
O144        O  0.20903358  0.08193060  0.41773627    -1.13910
O145        O  0.19162261  0.04025664  0.49714087    -0.76340
O146        O  0.20849360  0.01433048  0.44361146    -0.79830
O147        O  0.23018942  0.13277176  0.34966399    -0.80520
C148        C  0.19993699  0.01733167  0.48604400     0.94740
O149        O  0.17582838  0.02282446  0.35355375    -0.78470
O150        O  0.19315452  0.10368049  0.00289368    -0.83670
C151        C  0.16195087  0.12306980  0.43778479     0.97370
C152        C  0.22441541  0.11533983  0.01921468     1.03280
O153        O  0.19660963  0.14116991  0.43600016    -0.79310
C154        C  0.14603198  0.00381012  0.37336923     1.01580
Fe155      Fe  0.33543724  0.05161208  0.36916726     1.65780
Fe156      Fe  0.40107500  0.06117943  0.29784756     1.73250
Fe157      Fe  0.40027916  0.13356955  0.33618255     1.54420
O158        O  0.35363305  0.13453871  0.35931310    -0.83050
O159        O  0.45221328  0.08915101  0.32644844    -0.81350
O160        O  0.31374282  0.07958544  0.34077232    -0.85550
O161        O  0.35576011  0.08598135  0.42665824    -0.80410
O162        O  0.38620540  0.13021878  0.26391472    -0.82180
O163        O  0.38240832  0.01352806  0.34251044    -0.84930
C164        C  0.38657273  0.11294984  0.43656100     0.95840
C165        C  0.32159945  0.10851952  0.36152693     1.03280
O166        O  0.38046103  0.08195814  0.33805958    -1.13910
O167        O  0.35583656  0.04072914  0.25869766    -0.76340
O168        O  0.31336456  0.01408825  0.31241080    -0.79830
O169        O  0.41018105  0.13276833  0.40605472    -0.80520
C170        C  0.32480617  0.01731561  0.26988823     0.94740
O171        O  0.35472992  0.02298988  0.40235146    -0.78470
O172        O  0.41807994  0.10377726  0.25277819    -0.83670
C173        C  0.46867773  0.12297761  0.31782953     0.97360
C174        C  0.39847636  0.11540135  0.23645870     1.03280
O175        O  0.45217134  0.14110883  0.31974842    -0.79310
C176        C  0.36533755  0.00390229  0.38240133     1.01580
Fe177      Fe  0.17494486  0.45390335  0.11924723     1.65780
Fe178      Fe  0.10922985  0.44430969  0.04800151     1.73250
Fe179      Fe  0.11006997  0.37193889  0.08641629     1.54410
O180        O  0.15669137  0.37094148  0.10954350    -0.83050
O181        O  0.05813431  0.41634228  0.07671532    -0.81350
O182        O  0.19661625  0.42587296  0.09095177    -0.85550
O183        O  0.15462843  0.41960540  0.17682212    -0.80410
O184        O  0.12412633  0.37522829  0.01416511    -0.82180
O185        O  0.12787918  0.49196922  0.09260322    -0.84930
C186        C  0.12382781  0.39262839  0.18675255     0.95840
C187        C  0.18873600  0.39693425  0.11171714     1.03280
O188        O  0.12991319  0.42356119  0.08818258    -1.13910
O189        O  0.15441294  0.46488060  0.00873794    -0.76340
O190        O  0.19700386  0.49132391  0.06238713    -0.79830
O191        O  0.10020292  0.37280483  0.15627089    -0.80520
C192        C  0.18551451  0.48815959  0.01989436     0.94740
O193        O  0.15571229  0.48260963  0.15235263    -0.78470
O194        O  0.09225546  0.40167373  0.50298437    -0.83670
C195        C  0.04166928  0.38251983  0.06811883     0.97370
C196        C  0.11187807  0.39005570  0.48669264     1.03280
O197        O  0.05818330  0.36439764  0.07001090    -0.79310
C198        C  0.14502806  0.50164672  0.13242946     1.01580
Fe199      Fe  0.05398071  0.22107191  0.28571196     1.65780
Fe200      Fe  0.06358061  0.16478112  0.21475111     1.73250
Fe201      Fe  0.13593918  0.23833517  0.25289850     1.54410
O202        O  0.13686015  0.28593716  0.27607742    -0.83050
O203        O  0.09181381  0.14202147  0.24359231    -0.81350
O204        O  0.08194981  0.27076476  0.25737692    -0.85550
O205        O  0.08826756  0.23506184  0.34334958    -0.80410
O206        O  0.13250436  0.24892018  0.18062076    -0.82180
O207        O  0.01597329  0.13572717  0.25941228    -0.84930
C208        C  0.11528214  0.23132118  0.35328889     0.95840
C209        C  0.11081609  0.29188285  0.27822711     1.03280
O210        O  0.08430945  0.20641335  0.25467653    -1.13910
O211        O  0.04257403  0.18879624  0.17525885    -0.76340
O212        O  0.01669844  0.20578041  0.22874352    -0.79830
O213        O  0.13516217  0.22765036  0.32278757    -0.80520
C214        C  0.01970159  0.19719449  0.18632280     0.94740
O215        O  0.02523570  0.17313365  0.31885796    -0.78470
O216        O  0.10610490  0.19053067  0.16956342    -0.83670
C217        C  0.12559465  0.15946426  0.23470337     0.97360
C218        C  0.11769140  0.22176940  0.15321743     1.03280
O219        O  0.14365019  0.19412083  0.23645016    -0.79310
C220        C  0.00620901  0.14334738  0.29904396     1.01580
Fe221      Fe  0.45633385  0.28435236  0.03572468     1.65680
Fe222      Fe  0.44677601  0.34091725  0.46512656     1.73250
Fe223      Fe  0.37440859  0.26719875  0.00306587     1.54410
O224        O  0.37343756  0.21956721  0.02618387    -0.83050
O225        O  0.41839218  0.36346869  0.49408252    -0.81350
O226        O  0.42829079  0.23470414  0.00731322    -0.85550
O227        O  0.42210061  0.27039252  0.09344870    -0.80410
O228        O  0.37789066  0.25671297  0.43079611    -0.82180
O229        O  0.49428871  0.36993315  0.00991321    -0.84930
C230        C  0.39508559  0.27412328  0.10344271     0.95840
C231        C  0.39945726  0.21358889  0.02821224     1.03280
O232        O  0.42605290  0.29912286  0.00481761    -1.13910
O233        O  0.46812101  0.31736396  0.42543304    -0.76340
O234        O  0.49349371  0.29955546  0.47866254    -0.79830
O235        O  0.37520047  0.27782663  0.07297631    -0.80520
C236        C  0.49065475  0.30845843  0.43635007     0.94740
O237        O  0.48522709  0.33223344  0.06893735    -0.78470
O238        O  0.40434206  0.31513879  0.41976809    -0.83670
C239        C  0.38464782  0.34601433  0.48501550     0.97370
C240        C  0.39274488  0.28388543  0.40342253     1.03280
O241        O  0.36664093  0.31136180  0.48663967    -0.79310
C242        C  0.50413912  0.36214082  0.04934606     1.01580
Fe243      Fe  0.22365036  0.17240491  0.20262727     1.65780
Fe244      Fe  0.16748949  0.10654365  0.13148986     1.73250
Fe245      Fe  0.24093120  0.10773671  0.16973200     1.54420
O246        O  0.28851111  0.15445395  0.19288317    -0.83050
O247        O  0.14458316  0.05543348  0.16014634    -0.81350
O248        O  0.27337664  0.19424306  0.17432215    -0.85550
O249        O  0.23769470  0.15214426  0.26020934    -0.80410
O250        O  0.25156940  0.12178563  0.09745483    -0.82180
O251        O  0.13842807  0.12508539  0.17613960    -0.84930
C252        C  0.23393349  0.12137743  0.27012505     0.95840
C253        C  0.29448802  0.18645505  0.19508927     1.03280
O254        O  0.20902145  0.12739927  0.17155546    -1.13910
O255        O  0.19186988  0.15168883  0.09216700    -0.76340
O256        O  0.20823652  0.19437657  0.14573129    -0.79830
O257        O  0.23022797  0.09781632  0.23961523    -0.80520
C258        C  0.19984273  0.18283387  0.10326211     0.94740
O259        O  0.17570687  0.15305308  0.23578014    -0.78470
O260        O  0.19319411  0.08974192  0.08635491    -0.83670
C261        C  0.16206038  0.03912639  0.15136631     0.97360
C262        C  0.22443577  0.10940036  0.07002125     1.03280
O263        O  0.19671437  0.05577356  0.15326113    -0.79310
C264        C  0.14596888  0.14234835  0.21587653     1.01580
Fe265      Fe  0.05400760  0.33315768  0.80312097     1.65780
Fe266      Fe  0.06377891  0.39873760  0.87462773     1.73250
Fe267      Fe  0.13605347  0.39780145  0.83615384     1.54410
O268        O  0.13683879  0.35104812  0.81303671    -0.83050
O269        O  0.09175650  0.44987373  0.84602483    -0.81350
O270        O  0.08179883  0.31122858  0.83143618    -0.85550
O271        O  0.08840365  0.35338645  0.74565482    -0.80410
O272        O  0.13270429  0.38373708  0.90845272    -0.82180
O273        O  0.01605297  0.38008978  0.83010246    -0.84930
C274        C  0.11541179  0.38417143  0.73576781     0.95840
C275        C  0.11076340  0.31903690  0.81077661     1.03280
O276        O  0.08447134  0.37811181  0.83429751    -1.13910
O277        O  0.04343178  0.35345084  0.91369214    -0.76340
O278        O  0.01642686  0.31117334  0.85987017    -0.79830
O279        O  0.13527845  0.40773155  0.76628661    -0.80520
C280        C  0.01979107  0.32253831  0.90245292     0.94740
O281        O  0.02561834  0.35273433  0.76998622    -0.78470
O282        O  0.10643603  0.41575803  0.91956686    -0.83670
C283        C  0.12560590  0.46629877  0.85453565     0.97370
C284        C  0.11797755  0.39610386  0.93591191     1.03280
O285        O  0.14370005  0.44974998  0.85254348    -0.79310
C286        C  0.00645754  0.36317506  0.79010413     1.01580
Fe287      Fe  0.33558319  0.28431610  0.72007178     1.65780
Fe288      Fe  0.40158979  0.34077418  0.79088698     1.73250
Fe289      Fe  0.40036797  0.26722521  0.75294159     1.54410
O290        O  0.35367927  0.21959234  0.72981009    -0.83050
O291        O  0.45266921  0.36352476  0.76217754    -0.81350
O292        O  0.31391370  0.23468314  0.74854564    -0.85550
O293        O  0.35588946  0.27031379  0.66246810    -0.80410
O294        O  0.38633900  0.25671619  0.82522246    -0.82180
O295        O  0.38304535  0.36973379  0.74604945    -0.84930
C296        C  0.38667201  0.27410936  0.65251615     0.95840
C297        C  0.32166892  0.21359510  0.72768868     1.03280
O298        O  0.38065626  0.29910289  0.75105089    -1.13910
O299        O  0.35653710  0.31672665  0.83035436    -0.76340
O300        O  0.31357765  0.29963189  0.77698358    -0.79830
O301        O  0.41026489  0.27785686  0.68301474    -0.80520
C302        C  0.32523339  0.30828309  0.81936786     0.94740
O303        O  0.35469869  0.33217185  0.68678726    -0.78470
O304        O  0.41832507  0.31512789  0.83625943    -0.83670
C305        C  0.46896636  0.34607628  0.77118839     0.97360
C306        C  0.39868731  0.28387849  0.85261141     1.03280
O307        O  0.45232046  0.31142828  0.76943903    -0.79310
C308        C  0.36556633  0.36201348  0.70646995     1.01580
Fe309      Fe  0.28651478  0.45377999  0.63674562     1.65780
Fe310      Fe  0.34307890  0.44434991  0.70744574     1.73250
Fe311      Fe  0.26949743  0.37190264  0.66949637     1.54420
O312        O  0.22182214  0.37083937  0.64638514    -0.83050
O313        O  0.36581727  0.41609998  0.67860386    -0.81350
O314        O  0.23690685  0.42567209  0.66526198    -0.85550
O315        O  0.27255671  0.41950101  0.57909160    -0.80410
O316        O  0.25896188  0.37536004  0.74175621    -0.82180
O317        O  0.37203361  0.49184951  0.66260275    -0.84930
C318        C  0.27634074  0.39251897  0.56911649     0.95840
C319        C  0.21582531  0.39684375  0.64433362     1.03280
O320        O  0.30135513  0.42355080  0.66766922    -1.13910
O321        O  0.31922932  0.46547238  0.74701958    -0.76340
O322        O  0.30174745  0.49103528  0.69369450    -0.79830
O323        O  0.28012078  0.37268660  0.59958859    -0.80520
C324        C  0.31054375  0.48815152  0.73604113     0.94740
O325        O  0.33437540  0.48270945  0.60348307    -0.78470
O326        O  0.31738678  0.40191264  0.75280644    -0.83670
C327        C  0.34841273  0.38234459  0.68760421     0.97360
C328        C  0.28611930  0.39024659  0.76914418     1.03280
O329        O  0.31375617  0.36427472  0.68593274    -0.79310
C330        C  0.36427678  0.50164054  0.62308994     1.01580
Fe331      Fe  0.28658943  0.33306580  0.95253510     1.65780
Fe332      Fe  0.34296275  0.39905201  0.88166054     1.73250
Fe333      Fe  0.26942296  0.39780119  0.91963394     1.54410
O334        O  0.22180470  0.35108474  0.94271500    -0.83050
O335        O  0.36575862  0.45014585  0.91032903    -0.81350
O336        O  0.23695137  0.31134492  0.92402829    -0.85550
O337        O  0.27250596  0.35331359  0.51010928    -0.80410
O338        O  0.25891785  0.38378610  0.84734313    -0.82180
O339        O  0.37194257  0.38051756  0.92648590    -0.84930
C340        C  0.27630392  0.38409301  0.52005441     0.95840
C341        C  0.21582815  0.31908379  0.94483803     1.03280
O342        O  0.30133018  0.37813271  0.92155247    -1.13910
O343        O  0.31876874  0.35396836  0.84225497    -0.76340
O344        O  0.30202599  0.31111285  0.89567077    -0.79830
O345        O  0.28003807  0.40767894  0.48955672    -0.80520
C346        C  0.31057982  0.32274653  0.85326418     0.94740
O347        O  0.33444721  0.35226373  0.98584691    -0.78470
O348        O  0.31732363  0.41581048  0.83632582    -0.83670
C349        C  0.34828508  0.46642983  0.90138228     0.97360
C350        C  0.28608487  0.39616607  0.81995707     1.03280
O351        O  0.31363139  0.44976697  0.90317983    -0.79310
C352        C  0.36427495  0.36311349  0.96612378     1.01580
Fe353      Fe  0.17477618  0.22113725  0.96996059     1.65780
Fe354      Fe  0.10880510  0.16477188  0.54089542     1.73250
Fe355      Fe  0.10998837  0.23825552  0.00272533     1.54420
O356        O  0.15665396  0.28587312  0.97955435    -0.83050
O357        O  0.05773876  0.14195443  0.51213790    -0.81350
O358        O  0.19647680  0.27083754  0.99826523    -0.85550
O359        O  0.15446773  0.23507559  0.91229937    -0.80410
O360        O  0.12402643  0.24888012  0.57498662    -0.82180
O361        O  0.12736228  0.13575961  0.49619903    -0.84930
C362        C  0.12369273  0.23129559  0.90234504     0.95840
C363        C  0.18867438  0.29190258  0.97742088     1.03280
O364        O  0.12972479  0.20639599  0.50095759    -1.13910
O365        O  0.15386225  0.18886675  0.58036959    -0.76340
O366        O  0.19678279  0.20587889  0.52694935    -0.79830
O367        O  0.10009783  0.22754884  0.93283334    -0.80520
C368        C  0.18514995  0.19726402  0.56935434     0.94740
O369        O  0.15562490  0.17322195  0.93681430    -0.78470
O370        O  0.09204336  0.19048862  0.58610665    -0.83670
C371        C  0.04141741  0.15939450  0.52102884     0.97370
C372        C  0.11170000  0.22174679  0.60241695     1.03280
O373        O  0.05804670  0.19404113  0.51922137    -0.79310
C374        C  0.14480024  0.14341864  0.95659230     1.01580
Fe375      Fe  0.45634376  0.17235541  0.55305961     1.65780
Fe376      Fe  0.44658100  0.10661443  0.62435094     1.73250
Fe377      Fe  0.37431329  0.10765935  0.58594240     1.54410
O378        O  0.37348834  0.15438871  0.56286176    -0.83050
O379        O  0.41852922  0.05553874  0.59561689    -0.81350
O380        O  0.42849061  0.19422235  0.58135531    -0.85550
O381        O  0.42201741  0.15214888  0.99550852    -0.80410
O382        O  0.37765034  0.12168709  0.65822475    -0.82180
O383        O  0.49426484  0.12522423  0.57979511    -0.84930
C384        C  0.39500522  0.12137478  0.98558205     0.95840
C385        C  0.39953373  0.18641202  0.56068215     1.03280
O386        O  0.42590849  0.12737108  0.58416300    -1.13910
O387        O  0.46717943  0.15179787  0.66360418    -0.76340
O388        O  0.99379939  0.19431354  0.60990998    -0.79830
O389        O  0.37513490  0.09778633  0.51607244    -0.80520
C390        C  0.49055658  0.18285176  0.65243160     0.94740
O391        O  0.48484280  0.15290123  0.51993038    -0.78470
O392        O  0.40394570  0.08967441  0.66934874    -0.83670
C393        C  0.38470201  0.03913845  0.60421981     0.97360
C394        C  0.39240516  0.10934457  0.68567645     1.03280
O395        O  0.36663584  0.05571221  0.60230858    -0.79310
C396        C  0.50392465  0.14230674  0.53992289     1.01580
Fe397      Fe  0.22376053  0.05165115  0.88669934     1.65780
Fe398      Fe  0.16744365  0.06114708  0.95772038     1.73250
Fe399      Fe  0.24089391  0.13357045  0.91953336     1.54420
O400        O  0.28853265  0.13458699  0.89634408    -0.83050
O401        O  0.14454831  0.08928280  0.92895538    -0.81350
O402        O  0.27343117  0.07970654  0.91507891    -0.85550
O403        O  0.23771147  0.08594975  0.82908756    -0.80410
O404        O  0.25154738  0.13018485  0.99178770    -0.82180
O405        O  0.13842643  0.01355617  0.91302911    -0.84930
C406        C  0.23392780  0.11293720  0.81916262     0.95840
C407        C  0.29450969  0.10856824  0.89419146     1.03280
O408        O  0.20903360  0.08193060  0.91773627    -1.13910
O409        O  0.19162270  0.04025668  0.99714086    -0.76340
O410        O  0.20849360  0.01433047  0.94361143    -0.79830
O411        O  0.23018943  0.13277177  0.84966398    -0.80520
C412        C  0.19993702  0.01733167  0.98604398     0.94740
O413        O  0.17582840  0.02282448  0.85355373    -0.78470
O414        O  0.19315450  0.10368048  0.50289368    -0.83670
C415        C  0.16195087  0.12306978  0.93778480     0.97370
C416        C  0.22441539  0.11533982  0.51921467     1.03280
O417        O  0.19660963  0.14116990  0.93600016    -0.79310
C418        C  0.14603200  0.00381013  0.87336923     1.01580
Fe419      Fe  0.33543725  0.05161209  0.86916727     1.65780
Fe420      Fe  0.40107500  0.06117944  0.79784755     1.73250
Fe421      Fe  0.40027917  0.13356956  0.83618256     1.54420
O422        O  0.35363307  0.13453872  0.85931311    -0.83050
O423        O  0.45221328  0.08915100  0.82644842    -0.81350
O424        O  0.31374284  0.07958545  0.84077232    -0.85550
O425        O  0.35576012  0.08598137  0.92665824    -0.80410
O426        O  0.38620540  0.13021880  0.76391473    -0.82180
O427        O  0.38240831  0.01352806  0.84251042    -0.84930
C428        C  0.38657274  0.11294985  0.93656101     0.95840
C429        C  0.32159947  0.10851953  0.86152693     1.03280
O430        O  0.38046104  0.08195815  0.83805958    -1.13910
O431        O  0.35583654  0.04072917  0.75869766    -0.76340
O432        O  0.31336456  0.01408825  0.81241082    -0.79830
O433        O  0.41018107  0.13276834  0.90605474    -0.80520
C434        C  0.32480617  0.01731562  0.76988824     0.94740
O435        O  0.35472993  0.02298990  0.90235147    -0.78470
O436        O  0.41807994  0.10377727  0.75277819    -0.83670
C437        C  0.46867773  0.12297761  0.81782953     0.97360
C438        C  0.39847637  0.11540137  0.73645871     1.03280
O439        O  0.45217135  0.14110883  0.81974843    -0.79310
C440        C  0.36533755  0.00390230  0.88240133     1.01580
Fe441      Fe  0.17494486  0.45390335  0.61924724     1.65780
Fe442      Fe  0.10922986  0.44430969  0.54800152     1.73250
Fe443      Fe  0.11006997  0.37193889  0.58641630     1.54410
O444        O  0.15669137  0.37094147  0.60954351    -0.83050
O445        O  0.05813431  0.41634230  0.57671532    -0.81350
O446        O  0.19661625  0.42587296  0.59095178    -0.85550
O447        O  0.15462843  0.41960540  0.67682214    -0.80410
O448        O  0.12412633  0.37522828  0.51416512    -0.82180
O449        O  0.12787921  0.49196922  0.59260323    -0.84930
C450        C  0.12382781  0.39262838  0.68675256     0.95840
C451        C  0.18873599  0.39693425  0.61171715     1.03280
O452        O  0.12991319  0.42356119  0.58818259    -1.13910
O453        O  0.15441296  0.46488058  0.50873796    -0.76340
O454        O  0.19700386  0.49132392  0.56238715    -0.79830
O455        O  0.10020292  0.37280483  0.65627090    -0.80520
C456        C  0.18551452  0.48815959  0.51989438     0.94740
O457        O  0.15571229  0.48260962  0.65235265    -0.78470
O458        O  0.09225546  0.40167373  0.00298436    -0.83670
C459        C  0.04166928  0.38251984  0.56811884     0.97370
C460        C  0.11187807  0.39005570  0.98669263     1.03280
O461        O  0.05818330  0.36439765  0.57001092    -0.79310
C462        C  0.14502807  0.50164672  0.63242947     1.01580
Fe463      Fe  0.05398072  0.22107192  0.78571194     1.65780
Fe464      Fe  0.06358062  0.16478111  0.71475111     1.73250
Fe465      Fe  0.13593919  0.23833518  0.75289849     1.54410
O466        O  0.13686017  0.28593717  0.77607743    -0.83050
O467        O  0.09181383  0.14202149  0.74359234    -0.81350
O468        O  0.08194983  0.27076478  0.75737692    -0.85550
O469        O  0.08826756  0.23506183  0.84334957    -0.80410
O470        O  0.13250436  0.24892019  0.68062077    -0.82180
O471        O  0.01597330  0.13572716  0.75941229    -0.84930
C472        C  0.11528214  0.23132117  0.85328888     0.95840
C473        C  0.11081611  0.29188286  0.77822711     1.03280
O474        O  0.08430945  0.20641336  0.75467652    -1.13910
O475        O  0.04257399  0.18879617  0.67525883    -0.76340
O476        O  0.01669847  0.20578045  0.72874348    -0.79830
O477        O  0.13516217  0.22765036  0.82278757    -0.80520
C478        C  0.01970160  0.19719449  0.68632277     0.94740
O479        O  0.02523569  0.17313367  0.81885793    -0.78470
O480        O  0.10610490  0.19053068  0.66956343    -0.83670
C481        C  0.12559466  0.15946427  0.73470338     0.97360
C482        C  0.11769140  0.22176941  0.65321744     1.03280
O483        O  0.14365021  0.19412084  0.73645015    -0.79310
C484        C  0.00620901  0.14334738  0.79904395     1.01580
Fe485      Fe  0.45633385  0.28435236  0.53572464     1.65680
Fe486      Fe  0.44677601  0.34091720  0.96512653     1.73250
Fe487      Fe  0.37440859  0.26719876  0.50306586     1.54410
O488        O  0.37343755  0.21956721  0.52618386    -0.83050
O489        O  0.41839221  0.36346869  0.99408246    -0.81350
O490        O  0.42829076  0.23470413  0.50731317    -0.85550
O491        O  0.42210062  0.27039253  0.59344867    -0.80410
O492        O  0.37789066  0.25671295  0.93079612    -0.82180
O493        O  0.49428869  0.36993319  0.50991327    -0.84930
C494        C  0.39508560  0.27412329  0.60344270     0.95840
C495        C  0.39945725  0.21358889  0.52821222     1.03280
O496        O  0.42605290  0.29912287  0.50481760    -1.13910
O497        O  0.46812093  0.31736382  0.92543305    -0.76340
O498        O  0.49349375  0.29955550  0.97866260    -0.79830
O499        O  0.37520047  0.27782664  0.57297630    -0.80520
C500        C  0.49065475  0.30845839  0.93635011     0.94740
O501        O  0.48522712  0.33223342  0.56893732    -0.78470
O502        O  0.40434205  0.31513876  0.91976809    -0.83670
C503        C  0.38464785  0.34601434  0.98501549     0.97370
C504        C  0.39274486  0.28388540  0.90342253     1.03280
O505        O  0.36664095  0.31136180  0.98663968    -0.79310
C506        C  0.50413912  0.36214083  0.54934607     1.01580
Fe507      Fe  0.22365037  0.17240491  0.70262725     1.65780
Fe508      Fe  0.16748948  0.10654364  0.63148988     1.73250
Fe509      Fe  0.24093120  0.10773671  0.66973199     1.54420
O510        O  0.28851111  0.15445395  0.69288315    -0.83050
O511        O  0.14458316  0.05543348  0.66014637    -0.81350
O512        O  0.27337664  0.19424305  0.67432212    -0.85550
O513        O  0.23769471  0.15214426  0.76020933    -0.80410
O514        O  0.25156938  0.12178562  0.59745482    -0.82180
O515        O  0.13842806  0.12508538  0.67613963    -0.84930
C516        C  0.23393350  0.12137744  0.77012504     0.95840
C517        C  0.29448803  0.18645504  0.69508925     1.03280
O518        O  0.20902144  0.12739927  0.67155545    -1.13910
O519        O  0.19186984  0.15168881  0.59216701    -0.76340
O520        O  0.20823653  0.19437658  0.64573128    -0.79830
O521        O  0.23022798  0.09781632  0.73961522    -0.80520
C522        C  0.19984272  0.18283387  0.60326210     0.94740
O523        O  0.17570689  0.15305310  0.73578013    -0.78470
O524        O  0.19319410  0.08974192  0.58635491    -0.83670
C525        C  0.16206038  0.03912639  0.65136632     0.97360
C526        C  0.22443575  0.10940036  0.57002125     1.03280
O527        O  0.19671436  0.05577356  0.65326112    -0.79310
C528        C  0.14596889  0.14234835  0.71587654     1.01580
Fe529      Fe  0.05400759  0.83315768  0.30312095     1.65780
Fe530      Fe  0.06377890  0.89873757  0.37462774     1.73250
Fe531      Fe  0.13605346  0.89780144  0.33615384     1.54410
O532        O  0.13683877  0.85104811  0.31303671    -0.83050
O533        O  0.09175646  0.94987371  0.34602486    -0.81350
O534        O  0.08179880  0.81122857  0.33143617    -0.85550
O535        O  0.08840364  0.85338644  0.24565481    -0.80410
O536        O  0.13270428  0.88373707  0.40845272    -0.82180
O537        O  0.01605294  0.88008974  0.33010248    -0.84930
C538        C  0.11541179  0.88417142  0.23576781     0.95840
C539        C  0.11076337  0.81903688  0.31077661     1.03280
O540        O  0.08447132  0.87811180  0.33429750    -1.13910
O541        O  0.04343180  0.85345080  0.41369213    -0.76340
O542        O  0.01642682  0.81117333  0.35987014    -0.79830
O543        O  0.13527844  0.90773154  0.26628661    -0.80520
C544        C  0.01979106  0.82253829  0.40245290     0.94740
O545        O  0.02561835  0.85273435  0.26998620    -0.78470
O546        O  0.10643602  0.91575801  0.41956687    -0.83670
C547        C  0.12560587  0.96629875  0.35453566     0.97370
C548        C  0.11797754  0.89610384  0.43591191     1.03280
O549        O  0.14370002  0.94974996  0.35254347    -0.79310
C550        C  0.00645753  0.86317505  0.29010413     1.01580
Fe551      Fe  0.33558318  0.78431609  0.22007180     1.65780
Fe552      Fe  0.40158980  0.84077419  0.29088696     1.73250
Fe553      Fe  0.40036796  0.76722520  0.25294160     1.54410
O554        O  0.35367927  0.71959233  0.22981011    -0.83050
O555        O  0.45266921  0.86352475  0.26217751    -0.81350
O556        O  0.31391370  0.73468313  0.24854568    -0.85550
O557        O  0.35588945  0.77031378  0.16246812    -0.80410
O558        O  0.38633900  0.75671620  0.32522247    -0.82180
O559        O  0.38304536  0.86973380  0.24604943    -0.84930
C560        C  0.38667199  0.77410935  0.15251616     0.95840
C561        C  0.32166892  0.71359510  0.22768871     1.03280
O562        O  0.38065625  0.79910288  0.25105090    -1.13910
O563        O  0.35653712  0.81672670  0.33035436    -0.76340
O564        O  0.31357764  0.79963187  0.27698361    -0.79830
O565        O  0.41026488  0.77785684  0.18301475    -0.80520
C566        C  0.32523339  0.80828310  0.31936788     0.94740
O567        O  0.35469866  0.83217183  0.18678727    -0.78470
O568        O  0.41832507  0.81512790  0.33625944    -0.83670
C569        C  0.46896636  0.84607626  0.27118838     0.97360
C570        C  0.39868731  0.78387850  0.35261142     1.03280
O571        O  0.45232045  0.81142826  0.26943904    -0.79310
C572        C  0.36556632  0.86201347  0.20646994     1.01580
Fe573      Fe  0.28651477  0.95377998  0.13674563     1.65780
Fe574      Fe  0.34307891  0.94434990  0.20744573     1.73250
Fe575      Fe  0.26949743  0.87190264  0.16949637     1.54420
O576        O  0.22182213  0.87083936  0.14638514    -0.83050
O577        O  0.36581727  0.91609997  0.17860383    -0.81350
O578        O  0.23690684  0.92567207  0.16526199    -0.85550
O579        O  0.27255671  0.91950101  0.07909160    -0.80410
O580        O  0.25896188  0.87536004  0.24175621    -0.82180
O581        O  0.37203361  0.99184951  0.16260274    -0.84930
C582        C  0.27634074  0.89251897  0.06911648     0.95840
C583        C  0.21582530  0.89684374  0.14433362     1.03280
O584        O  0.30135513  0.92355080  0.16766922    -1.13910
O585        O  0.31922936  0.96547240  0.24701958    -0.76340
O586        O  0.30174744  0.99103527  0.19369452    -0.79830
O587        O  0.28012078  0.87268660  0.09958859    -0.80520
C588        C  0.31054375  0.98815151  0.23604114     0.94740
O589        O  0.33437539  0.98270945  0.10348308    -0.78470
O590        O  0.31738678  0.90191264  0.25280644    -0.83670
C591        C  0.34841272  0.88234458  0.18760420     0.97360
C592        C  0.28611930  0.89024659  0.26914417     1.03280
O593        O  0.31375617  0.86427472  0.18593274    -0.79310
C594        C  0.36427678  0.00164054  0.12308994     1.01580
Fe595      Fe  0.28658942  0.83306581  0.45253511     1.65780
Fe596      Fe  0.34296274  0.89905200  0.38166054     1.73250
Fe597      Fe  0.26942296  0.89780119  0.41963393     1.54410
O598        O  0.22180470  0.85108474  0.44271500    -0.83050
O599        O  0.36575862  0.95014585  0.41032902    -0.81350
O600        O  0.23695137  0.81134492  0.42402830    -0.85550
O601        O  0.27250596  0.85331359  0.01010928    -0.80410
O602        O  0.25891785  0.88378610  0.34734312    -0.82180
O603        O  0.37194256  0.88051754  0.42648590    -0.84930
C604        C  0.27630393  0.88409301  0.02005441     0.95840
C605        C  0.21582815  0.81908379  0.44483803     1.03280
O606        O  0.30133018  0.87813271  0.42155247    -1.13910
O607        O  0.31876871  0.85396835  0.34225498    -0.76340
O608        O  0.30202599  0.81111285  0.39567079    -0.79830
O609        O  0.28003808  0.90767894  0.98955672    -0.80520
C610        C  0.31057982  0.82274652  0.35326420     0.94740
O611        O  0.33444721  0.85226374  0.48584692    -0.78470
O612        O  0.31732363  0.91581048  0.33632582    -0.83670
C613        C  0.34828508  0.96642983  0.40138227     0.97360
C614        C  0.28608487  0.89616607  0.31995707     1.03280
O615        O  0.31363139  0.94976697  0.40317983    -0.79310
C616        C  0.36427494  0.86311349  0.46612379     1.01580
Fe617      Fe  0.17477619  0.72113726  0.46996059     1.65780
Fe618      Fe  0.10880509  0.66477186  0.04089540     1.73250
Fe619      Fe  0.10998837  0.73825552  0.50272533     1.54420
O620        O  0.15665396  0.78587312  0.47955436    -0.83050
O621        O  0.05773876  0.64195442  0.01213787    -0.81350
O622        O  0.19647680  0.77083754  0.49826524    -0.85550
O623        O  0.15446774  0.73507560  0.41229937    -0.80410
O624        O  0.12402643  0.74888011  0.07498661    -0.82180
O625        O  0.12736227  0.63575959  0.99619900    -0.84930
C626        C  0.12369274  0.73129560  0.40234504     0.95840
C627        C  0.18867438  0.79190258  0.47742088     1.03280
O628        O  0.12972479  0.70639598  0.00095759    -1.13910
O629        O  0.15386223  0.68886669  0.08036959    -0.76340
O630        O  0.19678280  0.70587891  0.02694937    -0.79830
O631        O  0.10009783  0.72754885  0.43283335    -0.80520
C632        C  0.18514994  0.69726401  0.06935436     0.94740
O633        O  0.15562491  0.67322196  0.43681430    -0.78470
O634        O  0.09204336  0.69048861  0.08610664    -0.83670
C635        C  0.04141741  0.65939449  0.02102883     0.97370
C636        C  0.11170000  0.72174679  0.10241694     1.03280
O637        O  0.05804670  0.69404113  0.01922136    -0.79310
C638        C  0.14480024  0.64341865  0.45659230     1.01580
Fe639      Fe  0.45634376  0.67235541  0.05305962     1.65780
Fe640      Fe  0.44658099  0.60661440  0.12435092     1.73250
Fe641      Fe  0.37431329  0.60765934  0.08594239     1.54410
O642        O  0.37348834  0.65438870  0.06286175    -0.83050
O643        O  0.41852920  0.55553873  0.09561686    -0.81350
O644        O  0.42849061  0.69422234  0.08135533    -0.85550
O645        O  0.42201741  0.65214888  0.49550851    -0.80410
O646        O  0.37765034  0.62168708  0.15822474    -0.82180
O647        O  0.49426483  0.62522420  0.07979509    -0.84930
C648        C  0.39500522  0.62137478  0.48558205     0.95840
C649        C  0.39953373  0.68641201  0.06068216     1.03280
O650        O  0.42590849  0.62737107  0.08416300    -1.13910
O651        O  0.46717946  0.65179783  0.16360418    -0.76340
O652        O  0.99379936  0.69431353  0.10991002    -0.79830
O653        O  0.37513491  0.59778633  0.01607243    -0.80520
C654        C  0.49055657  0.68285174  0.15243162     0.94740
O655        O  0.48484282  0.65290125  0.01993039    -0.78470
O656        O  0.40394570  0.58967440  0.16934873    -0.83670
C657        C  0.38470200  0.53913844  0.10421980     0.97360
C658        C  0.39240516  0.60934456  0.18567644     1.03280
O659        O  0.36663583  0.55571220  0.10230857    -0.79310
C660        C  0.50392465  0.64230673  0.03992288     1.01580
Fe661      Fe  0.22376053  0.55165114  0.38669934     1.65780
Fe662      Fe  0.16744364  0.56114708  0.45772037     1.73250
Fe663      Fe  0.24089391  0.63357045  0.41953336     1.54420
O664        O  0.28853265  0.63458698  0.39634408    -0.83050
O665        O  0.14454831  0.58928281  0.42895537    -0.81350
O666        O  0.27343116  0.57970654  0.41507891    -0.85550
O667        O  0.23771146  0.58594974  0.32908756    -0.80410
O668        O  0.25154738  0.63018485  0.49178769    -0.82180
O669        O  0.13842641  0.51355617  0.41302911    -0.84930
C670        C  0.23392778  0.61293719  0.31916263     0.95840
C671        C  0.29450969  0.60856823  0.39419146     1.03280
O672        O  0.20903359  0.58193060  0.41773627    -1.13910
O673        O  0.19162266  0.54025667  0.49714086    -0.76340
O674        O  0.20849361  0.51433047  0.44361145    -0.79830
O675        O  0.23018942  0.63277176  0.34966398    -0.80520
C676        C  0.19993701  0.51733167  0.48604399     0.94740
O677        O  0.17582839  0.52282446  0.35355374    -0.78470
O678        O  0.19315454  0.60368050  0.00289367    -0.83670
C679        C  0.16195087  0.62306979  0.43778480     0.97370
C680        C  0.22441542  0.61533984  0.01921467     1.03280
O681        O  0.19660963  0.64116990  0.43600016    -0.79310
C682        C  0.14603199  0.50381012  0.37336924     1.01580
Fe683      Fe  0.33543725  0.55161209  0.36916727     1.65780
Fe684      Fe  0.40107499  0.56117943  0.29784755     1.73250
Fe685      Fe  0.40027916  0.63356955  0.33618256     1.54420
O686        O  0.35363306  0.63453872  0.35931310    -0.83050
O687        O  0.45221328  0.58915100  0.32644843    -0.81350
O688        O  0.31374283  0.57958544  0.34077231    -0.85550
O689        O  0.35576012  0.58598136  0.42665824    -0.80410
O690        O  0.38620540  0.63021879  0.26391472    -0.82180
O691        O  0.38240831  0.51352806  0.34251043    -0.84930
C692        C  0.38657273  0.61294984  0.43656100     0.95840
C693        C  0.32159946  0.60851953  0.36152693     1.03280
O694        O  0.38046103  0.58195815  0.33805958    -1.13910
O695        O  0.35583654  0.54072916  0.25869766    -0.76340
O696        O  0.31336456  0.51408825  0.31241081    -0.79830
O697        O  0.41018106  0.63276833  0.40605473    -0.80520
C698        C  0.32480616  0.51731561  0.26988824     0.94740
O699        O  0.35472992  0.52298989  0.40235147    -0.78470
O700        O  0.41807994  0.60377726  0.25277819    -0.83670
C701        C  0.46867773  0.62297760  0.31782953     0.97360
C702        C  0.39847637  0.61540136  0.23645870     1.03280
O703        O  0.45217134  0.64110882  0.31974842    -0.79310
C704        C  0.36533755  0.50390229  0.38240133     1.01580
Fe705      Fe  0.17494486  0.95390335  0.11924723     1.65780
Fe706      Fe  0.10922985  0.94430968  0.04800152     1.73250
Fe707      Fe  0.11006996  0.87193888  0.08641629     1.54410
O708        O  0.15669136  0.87094147  0.10954351    -0.83050
O709        O  0.05813430  0.91634228  0.07671533    -0.81350
O710        O  0.19661625  0.92587295  0.09095177    -0.85550
O711        O  0.15462842  0.91960539  0.17682213    -0.80410
O712        O  0.12412632  0.87522828  0.01416511    -0.82180
O713        O  0.12787919  0.99196921  0.09260324    -0.84930
C714        C  0.12382781  0.89262838  0.18675256     0.95840
C715        C  0.18873599  0.89693424  0.11171715     1.03280
O716        O  0.12991319  0.92356118  0.08818259    -1.13910
O717        O  0.15441294  0.96488059  0.00873795    -0.76340
O718        O  0.19700386  0.99132390  0.06238714    -0.79830
O719        O  0.10020292  0.87280482  0.15627090    -0.80520
C720        C  0.18551451  0.98815959  0.01989437     0.94740
O721        O  0.15571230  0.98260962  0.15235264    -0.78470
O722        O  0.09225546  0.90167372  0.50298437    -0.83670
C723        C  0.04166927  0.88251983  0.06811884     0.97370
C724        C  0.11187806  0.89005569  0.48669264     1.03280
O725        O  0.05818329  0.86439764  0.07001091    -0.79310
C726        C  0.14502807  0.00164672  0.13242947     1.01580
Fe727      Fe  0.05398071  0.72107190  0.28571196     1.65780
Fe728      Fe  0.06358061  0.66478112  0.21475110     1.73250
Fe729      Fe  0.13593918  0.73833517  0.25289849     1.54410
O730        O  0.13686015  0.78593716  0.27607742    -0.83050
O731        O  0.09181381  0.64202147  0.24359230    -0.81350
O732        O  0.08194980  0.77076476  0.25737693    -0.85550
O733        O  0.08826756  0.73506183  0.34334958    -0.80410
O734        O  0.13250435  0.74892018  0.18062076    -0.82180
O735        O  0.01597328  0.63572717  0.25941227    -0.84930
C736        C  0.11528214  0.73132117  0.35328888     0.95840
C737        C  0.11081608  0.79188285  0.27822711     1.03280
O738        O  0.08430944  0.70641335  0.25467652    -1.13910
O739        O  0.04257402  0.68879624  0.17525885    -0.76340
O740        O  0.01669844  0.70578041  0.22874352    -0.79830
O741        O  0.13516217  0.72765036  0.32278757    -0.80520
C742        C  0.01970159  0.69719450  0.18632279     0.94740
O743        O  0.02523570  0.67313364  0.31885796    -0.78470
O744        O  0.10610490  0.69053068  0.16956342    -0.83670
C745        C  0.12559465  0.65946426  0.23470335     0.97360
C746        C  0.11769140  0.72176940  0.15321743     1.03280
O747        O  0.14365019  0.69412083  0.23645014    -0.79310
C748        C  0.00620901  0.64334737  0.29904395     1.01580
Fe749      Fe  0.45633385  0.78435236  0.03572466     1.65680
Fe750      Fe  0.44677601  0.84091722  0.46512655     1.73250
Fe751      Fe  0.37440858  0.76719875  0.00306587     1.54410
O752        O  0.37343755  0.71956721  0.02618387    -0.83050
O753        O  0.41839220  0.86346869  0.49408249    -0.81350
O754        O  0.42829078  0.73470414  0.00731320    -0.85550
O755        O  0.42210061  0.77039252  0.09344869    -0.80410
O756        O  0.37789066  0.75671296  0.43079612    -0.82180
O757        O  0.49428870  0.86993317  0.00991324    -0.84930
C758        C  0.39508559  0.77412328  0.10344271     0.95840
C759        C  0.39945726  0.71358889  0.02821223     1.03280
O760        O  0.42605289  0.79912286  0.00481761    -1.13910
O761        O  0.46812097  0.81736389  0.42543305    -0.76340
O762        O  0.49349373  0.79955547  0.47866257    -0.79830
O763        O  0.37520046  0.77782663  0.07297632    -0.80520
C764        C  0.49065475  0.80845840  0.43635009     0.94740
O765        O  0.48522710  0.83223343  0.06893734    -0.78470
O766        O  0.40434206  0.81513877  0.41976810    -0.83670
C767        C  0.38464784  0.84601433  0.48501550     0.97370
C768        C  0.39274487  0.78388541  0.40342254     1.03280
O769        O  0.36664094  0.81136180  0.48663968    -0.79310
C770        C  0.50413912  0.86214083  0.04934607     1.01580
Fe771      Fe  0.22365035  0.67240491  0.20262727     1.65780
Fe772      Fe  0.16748951  0.60654367  0.13148984     1.73250
Fe773      Fe  0.24093120  0.60773671  0.16973199     1.54420
O774        O  0.28851110  0.65445395  0.19288317    -0.83050
O775        O  0.14458315  0.55543349  0.16014631    -0.81350
O776        O  0.27337663  0.69424306  0.17432216    -0.85550
O777        O  0.23769469  0.65214425  0.26020934    -0.80410
O778        O  0.25156941  0.62178563  0.09745482    -0.82180
O779        O  0.13842808  0.62508540  0.17613958    -0.84930
C780        C  0.23393349  0.62137743  0.27012505     0.95840
C781        C  0.29448802  0.68645504  0.19508927     1.03280
O782        O  0.20902144  0.62739927  0.17155546    -1.13910
O783        O  0.19186993  0.65168886  0.09216700    -0.76340
O784        O  0.20823651  0.69437658  0.14573131    -0.79830
O785        O  0.23022797  0.59781631  0.23961522    -0.80520
C786        C  0.19984274  0.68283389  0.10326212     0.94740
O787        O  0.17570686  0.65305306  0.23578014    -0.78470
O788        O  0.19319412  0.58974193  0.08635490    -0.83670
C789        C  0.16206037  0.53912640  0.15136630     0.97360
C790        C  0.22443578  0.60940037  0.07002124     1.03280
O791        O  0.19671436  0.55577356  0.15326113    -0.79310
C792        C  0.14596888  0.64234835  0.21587651     1.01580
Fe793      Fe  0.05400759  0.83315768  0.80312097     1.65780
Fe794      Fe  0.06377891  0.89873759  0.87462774     1.73250
Fe795      Fe  0.13605347  0.89780144  0.83615384     1.54410
O796        O  0.13683877  0.85104811  0.81303672    -0.83050
O797        O  0.09175649  0.94987372  0.84602484    -0.81350
O798        O  0.08179881  0.81122857  0.83143618    -0.85550
O799        O  0.08840364  0.85338644  0.74565482    -0.80410
O800        O  0.13270428  0.88373707  0.90845273    -0.82180
O801        O  0.01605296  0.88008977  0.83010247    -0.84930
C802        C  0.11541179  0.88417142  0.73576781     0.95840
C803        C  0.11076338  0.81903689  0.81077661     1.03280
O804        O  0.08447133  0.87811180  0.83429751    -1.13910
O805        O  0.04343177  0.85345083  0.91369214    -0.76340
O806        O  0.01642684  0.81117333  0.85987016    -0.79830
O807        O  0.13527845  0.90773154  0.76628661    -0.80520
C808        C  0.01979106  0.82253830  0.90245292     0.94740
O809        O  0.02561834  0.85273434  0.76998622    -0.78470
O810        O  0.10643603  0.91575802  0.91956687    -0.83670
C811        C  0.12560589  0.96629876  0.85453566     0.97370
C812        C  0.11797754  0.89610385  0.93591192     1.03280
O813        O  0.14370004  0.94974997  0.85254348    -0.79310
C814        C  0.00645753  0.86317506  0.79010414     1.01580
Fe815      Fe  0.33558319  0.78431610  0.72007180     1.65780
Fe816      Fe  0.40158980  0.84077420  0.79088697     1.73250
Fe817      Fe  0.40036797  0.76722521  0.75294160     1.54410
O818        O  0.35367928  0.71959234  0.72981010    -0.83050
O819        O  0.45266922  0.86352476  0.76217752    -0.81350
O820        O  0.31391371  0.73468313  0.74854566    -0.85550
O821        O  0.35588946  0.77031379  0.66246811    -0.80410
O822        O  0.38633900  0.75671620  0.82522247    -0.82180
O823        O  0.38304536  0.86973380  0.74604944    -0.84930
C824        C  0.38667201  0.77410936  0.65251616     0.95840
C825        C  0.32166893  0.71359510  0.72768869     1.03280
O826        O  0.38065626  0.79910289  0.75105090    -1.13910
O827        O  0.35653712  0.81672669  0.83035436    -0.76340
O828        O  0.31357765  0.79963188  0.77698360    -0.79830
O829        O  0.41026489  0.77785686  0.68301475    -0.80520
C830        C  0.32523339  0.80828310  0.81936787     0.94740
O831        O  0.35469867  0.83217184  0.68678727    -0.78470
O832        O  0.41832507  0.81512790  0.83625944    -0.83670
C833        C  0.46896636  0.84607627  0.77118839     0.97360
C834        C  0.39868732  0.78387850  0.85261142     1.03280
O835        O  0.45232046  0.81142827  0.76943904    -0.79310
C836        C  0.36556633  0.86201348  0.70646994     1.01580
Fe837      Fe  0.28651480  0.95378000  0.63674563     1.65780
Fe838      Fe  0.34307893  0.94434992  0.70744573     1.73250
Fe839      Fe  0.26949744  0.87190265  0.66949637     1.54420
O840        O  0.22182215  0.87083938  0.64638513    -0.83050
O841        O  0.36581728  0.91609998  0.67860384    -0.81350
O842        O  0.23690686  0.92567210  0.66526198    -0.85550
O843        O  0.27255674  0.91950103  0.57909160    -0.80410
O844        O  0.25896189  0.87536006  0.74175621    -0.82180
O845        O  0.37203364  0.99184952  0.66260275    -0.84930
C846        C  0.27634076  0.89251899  0.56911649     0.95840
C847        C  0.21582532  0.89684376  0.64433361     1.03280
O848        O  0.30135514  0.92355082  0.66766922    -1.13910
O849        O  0.31922939  0.96547242  0.74701959    -0.76340
O850        O  0.30174745  0.99103528  0.69369452    -0.79830
O851        O  0.28012080  0.87268661  0.59958859    -0.80520
C852        C  0.31054377  0.98815153  0.73604115     0.94740
O853        O  0.33437542  0.98270947  0.60348309    -0.78470
O854        O  0.31738679  0.90191266  0.75280644    -0.83670
C855        C  0.34841273  0.88234459  0.68760421     0.97360
C856        C  0.28611931  0.89024660  0.76914417     1.03280
O857        O  0.31375618  0.86427473  0.68593275    -0.79310
C858        C  0.36427680  0.00164056  0.62308995     1.01580
Fe859      Fe  0.28658941  0.83306580  0.95253510     1.65780
Fe860      Fe  0.34296274  0.89905201  0.88166055     1.73250
Fe861      Fe  0.26942295  0.89780120  0.91963393     1.54410
O862        O  0.22180469  0.85108475  0.94271499    -0.83050
O863        O  0.36575862  0.95014586  0.91032903    -0.81350
O864        O  0.23695136  0.81134492  0.92402828    -0.85550
O865        O  0.27250597  0.85331360  0.51010929    -0.80410
O866        O  0.25891785  0.88378611  0.84734312    -0.82180
O867        O  0.37194256  0.88051755  0.92648591    -0.84930
C868        C  0.27630394  0.88409302  0.52005442     0.95840
C869        C  0.21582815  0.81908380  0.94483802     1.03280
O870        O  0.30133018  0.87813272  0.92155247    -1.13910
O871        O  0.31876873  0.85396836  0.84225498    -0.76340
O872        O  0.30202598  0.81111285  0.89567078    -0.79830
O873        O  0.28003809  0.90767894  0.48955672    -0.80520
C874        C  0.31057982  0.82274653  0.85326419     0.94740
O875        O  0.33444719  0.85226372  0.98584691    -0.78470
O876        O  0.31732364  0.91581048  0.83632582    -0.83670
C877        C  0.34828507  0.96642984  0.90138227     0.97360
C878        C  0.28608488  0.89616608  0.81995707     1.03280
O879        O  0.31363139  0.94976698  0.90317982    -0.79310
C880        C  0.36427493  0.86311348  0.96612379     1.01580
Fe881      Fe  0.17477620  0.72113727  0.96996060     1.65780
Fe882      Fe  0.10880509  0.66477186  0.54089541     1.73250
Fe883      Fe  0.10998837  0.73825553  0.00272533     1.54420
O884        O  0.15665396  0.78587313  0.97955435    -0.83050
O885        O  0.05773876  0.64195442  0.51213789    -0.81350
O886        O  0.19647680  0.77083756  0.99826524    -0.85550
O887        O  0.15446774  0.73507560  0.91229937    -0.80410
O888        O  0.12402644  0.74888011  0.57498661    -0.82180
O889        O  0.12736227  0.63575959  0.49619902    -0.84930
C890        C  0.12369274  0.73129560  0.90234504     0.95840
C891        C  0.18867438  0.79190259  0.97742088     1.03280
O892        O  0.12972479  0.70639598  0.50095759    -1.13910
O893        O  0.15386224  0.68886672  0.58036959    -0.76340
O894        O  0.19678280  0.70587889  0.52694936    -0.79830
O895        O  0.10009784  0.72754885  0.93283334    -0.80520
C896        C  0.18514994  0.69726401  0.56935435     0.94740
O897        O  0.15562494  0.67322197  0.93681431    -0.78470
O898        O  0.09204336  0.69048861  0.58610665    -0.83670
C899        C  0.04141741  0.65939449  0.52102883     0.97370
C900        C  0.11170000  0.72174679  0.60241694     1.03280
O901        O  0.05804670  0.69404112  0.51922136    -0.79310
C902        C  0.14480025  0.64341865  0.95659230     1.01580
Fe903      Fe  0.45634376  0.67235540  0.55305963     1.65780
Fe904      Fe  0.44658099  0.60661439  0.62435091     1.73250
Fe905      Fe  0.37431328  0.60765934  0.58594240     1.54410
O906        O  0.37348833  0.65438869  0.56286177    -0.83050
O907        O  0.41852919  0.55553871  0.59561684    -0.81350
O908        O  0.42849060  0.69422233  0.58135534    -0.85550
O909        O  0.42201741  0.65214888  0.99550850    -0.80410
O910        O  0.37765035  0.62168707  0.65822475    -0.82180
O911        O  0.49426482  0.62522418  0.57979507    -0.84930
C912        C  0.39500522  0.62137478  0.98558204     0.95840
C913        C  0.39953372  0.68641201  0.56068217     1.03280
O914        O  0.42590848  0.62737106  0.58416301    -1.13910
O915        O  0.46717948  0.65179781  0.66360419    -0.76340
O916        O  0.99379936  0.69431353  0.60991002    -0.79830
O917        O  0.37513490  0.59778633  0.51607244    -0.80520
C918        C  0.49055657  0.68285172  0.65243163     0.94740
O919        O  0.48484281  0.65290125  0.51993040    -0.78470
O920        O  0.40394570  0.58967439  0.66934873    -0.83670
C921        C  0.38470198  0.53913843  0.60421980     0.97360
C922        C  0.39240516  0.60934455  0.68567644     1.03280
O923        O  0.36663582  0.55571220  0.60230858    -0.79310
C924        C  0.50392464  0.64230673  0.53992288     1.01580
Fe925      Fe  0.22376054  0.55165115  0.88669933     1.65780
Fe926      Fe  0.16744367  0.56114709  0.95772037     1.73250
Fe927      Fe  0.24089393  0.63357046  0.91953336     1.54420
O928        O  0.28853267  0.63458699  0.89634408    -0.83050
O929        O  0.14454832  0.58928281  0.92895538    -0.81350
O930        O  0.27343118  0.57970654  0.91507890    -0.85550
O931        O  0.23771148  0.58594975  0.82908756    -0.80410
O932        O  0.25154740  0.63018486  0.99178769    -0.82180
O933        O  0.13842644  0.51355618  0.91302911    -0.84930
C934        C  0.23392781  0.61293721  0.81916262     0.95840
C935        C  0.29450971  0.60856824  0.89419145     1.03280
O936        O  0.20903361  0.58193061  0.91773626    -1.13910
O937        O  0.19162272  0.54025670  0.99714085    -0.76340
O938        O  0.20849361  0.51433047  0.94361142    -0.79830
O939        O  0.23018944  0.63277178  0.84966398    -0.80520
C940        C  0.19993702  0.51733167  0.98604397     0.94740
O941        O  0.17582840  0.52282449  0.85355372    -0.78470
O942        O  0.19315452  0.60368049  0.50289368    -0.83670
C943        C  0.16195088  0.62306979  0.93778479     0.97370
C944        C  0.22441541  0.61533983  0.51921467     1.03280
O945        O  0.19660964  0.64116991  0.93600015    -0.79310
C946        C  0.14603201  0.50381014  0.87336923     1.01580
Fe947      Fe  0.33543725  0.55161209  0.86916725     1.65780
Fe948      Fe  0.40107502  0.56117943  0.79784756     1.73250
Fe949      Fe  0.40027918  0.63356955  0.83618255     1.54420
O950        O  0.35363308  0.63453872  0.85931310    -0.83050
O951        O  0.45221329  0.58915101  0.82644845    -0.81350
O952        O  0.31374285  0.57958546  0.84077230    -0.85550
O953        O  0.35576013  0.58598136  0.92665823    -0.80410
O954        O  0.38620541  0.63021879  0.76391472    -0.82180
O955        O  0.38240833  0.51352806  0.84251045    -0.84930
C956        C  0.38657274  0.61294984  0.93656099     0.95840
C957        C  0.32159948  0.60851954  0.86152692     1.03280
O958        O  0.38046104  0.58195815  0.83805957    -1.13910
O959        O  0.35583658  0.54072913  0.75869765    -0.76340
O960        O  0.31336456  0.51408827  0.81241079    -0.79830
O961        O  0.41018107  0.63276833  0.90605472    -0.80520
C962        C  0.32480618  0.51731561  0.76988822     0.94740
O963        O  0.35472991  0.52298988  0.90235146    -0.78470
O964        O  0.41807995  0.60377725  0.75277819    -0.83670
C965        C  0.46867775  0.62297761  0.81782953     0.97360
C966        C  0.39847638  0.61540135  0.73645870     1.03280
O967        O  0.45217136  0.64110883  0.81974842    -0.79310
C968        C  0.36533755  0.50390229  0.88240133     1.01580
Fe969      Fe  0.17494485  0.95390335  0.61924726     1.65780
Fe970      Fe  0.10922986  0.94430968  0.54800152     1.73250
Fe971      Fe  0.11006997  0.87193888  0.58641630     1.54410
O972        O  0.15669138  0.87094148  0.60954351    -0.83050
O973        O  0.05813431  0.91634229  0.57671531    -0.81350
O974        O  0.19661626  0.92587297  0.59095178    -0.85550
O975        O  0.15462843  0.91960539  0.67682214    -0.80410
O976        O  0.12412633  0.87522828  0.51416512    -0.82180
O977        O  0.12787921  0.99196922  0.59260323    -0.84930
C978        C  0.12382781  0.89262838  0.68675257     0.95840
C979        C  0.18873600  0.89693426  0.61171715     1.03280
O980        O  0.12991319  0.92356118  0.58818260    -1.13910
O981        O  0.15441297  0.96488056  0.50873797    -0.76340
O982        O  0.19700385  0.99132393  0.56238717    -0.79830
O983        O  0.10020292  0.87280482  0.65627091    -0.80520
C984        C  0.18551451  0.98815959  0.51989440     0.94740
O985        O  0.15571227  0.98260961  0.65235267    -0.78470
O986        O  0.09225546  0.90167373  0.00298437    -0.83670
C987        C  0.04166928  0.88251984  0.56811884     0.97370
C988        C  0.11187806  0.89005570  0.98669264     1.03280
O989        O  0.05818330  0.86439764  0.57001092    -0.79310
C990        C  0.14502806  0.00164671  0.63242948     1.01580
Fe991      Fe  0.05398072  0.72107191  0.78571196     1.65780
Fe992      Fe  0.06358062  0.66478112  0.71475110     1.73250
Fe993      Fe  0.13593919  0.73833518  0.75289849     1.54410
O994        O  0.13686016  0.78593716  0.77607742    -0.83050
O995        O  0.09181383  0.64202148  0.74359231    -0.81350
O996        O  0.08194981  0.77076476  0.75737693    -0.85550
O997        O  0.08826757  0.73506183  0.84334958    -0.80410
O998        O  0.13250437  0.74892019  0.68062076    -0.82180
O999        O  0.01597330  0.63572717  0.75941227    -0.84930
C1000       C  0.11528215  0.73132118  0.85328888     0.95840
C1001       C  0.11081609  0.79188285  0.77822711     1.03280
O1002       O  0.08430946  0.70641336  0.75467652    -1.13910
O1003       O  0.04257403  0.68879623  0.67525884    -0.76340
O1004       O  0.01669845  0.70578041  0.72874352    -0.79830
O1005       O  0.13516219  0.72765037  0.82278757    -0.80520
C1006       C  0.01970160  0.69719449  0.68632279     0.94740
O1007       O  0.02523572  0.67313365  0.81885796    -0.78470
O1008       O  0.10610491  0.69053068  0.66956342    -0.83670
C1009       C  0.12559466  0.65946426  0.73470337     0.97360
C1010       C  0.11769141  0.72176941  0.65321743     1.03280
O1011       O  0.14365021  0.69412083  0.73645015    -0.79310
C1012       C  0.00620903  0.64334738  0.79904396     1.01580
Fe1013     Fe  0.45633385  0.78435236  0.53572466     1.65680
Fe1014     Fe  0.44677600  0.84091722  0.96512655     1.73250
Fe1015     Fe  0.37440859  0.76719875  0.50306587     1.54410
O1016       O  0.37343755  0.71956721  0.52618387    -0.83050
O1017       O  0.41839219  0.86346869  0.99408250    -0.81350
O1018       O  0.42829077  0.73470413  0.50731320    -0.85550
O1019       O  0.42210062  0.77039252  0.59344869    -0.80410
O1020       O  0.37789066  0.75671296  0.93079612    -0.82180
O1021       O  0.49428870  0.86993316  0.50991324    -0.84930
C1022       C  0.39508560  0.77412329  0.60344271     0.95840
C1023       C  0.39945725  0.71358888  0.52821224     1.03280
O1024       O  0.42605290  0.79912286  0.50481761    -1.13910
O1025       O  0.46812097  0.81736389  0.92543305    -0.76340
O1026       O  0.49349373  0.79955548  0.97866258    -0.79830
O1027       O  0.37520047  0.77782664  0.57297632    -0.80520
C1028       C  0.49065475  0.80845841  0.93635010     0.94740
O1029       O  0.48522711  0.83223343  0.56893734    -0.78470
O1030       O  0.40434205  0.81513877  0.91976810    -0.83670
C1031       C  0.38464783  0.84601433  0.98501550     0.97370
C1032       C  0.39274486  0.78388541  0.90342254     1.03280
O1033       O  0.36664093  0.81136180  0.98663968    -0.79310
C1034       C  0.50413913  0.86214082  0.54934606     1.01580
Fe1035     Fe  0.22365037  0.67240492  0.70262726     1.65780
Fe1036     Fe  0.16748950  0.60654366  0.63148986     1.73250
Fe1037     Fe  0.24093121  0.60773672  0.66973199     1.54420
O1038       O  0.28851112  0.65445395  0.69288315    -0.83050
O1039       O  0.14458317  0.55543349  0.66014635    -0.81350
O1040       O  0.27337665  0.69424306  0.67432214    -0.85550
O1041       O  0.23769471  0.65214427  0.76020933    -0.80410
O1042       O  0.25156940  0.62178563  0.59745482    -0.82180
O1043       O  0.13842808  0.62508539  0.67613961    -0.84930
C1044       C  0.23393351  0.62137745  0.77012504     0.95840
C1045       C  0.29448803  0.68645505  0.69508925     1.03280
O1046       O  0.20902146  0.62739928  0.67155545    -1.13910
O1047       O  0.19186989  0.65168883  0.59216700    -0.76340
O1048       O  0.20823652  0.69437658  0.64573129    -0.79830
O1049       O  0.23022799  0.59781632  0.73961522    -0.80520
C1050       C  0.19984273  0.68283388  0.60326211     0.94740
O1051       O  0.17570689  0.65305309  0.73578014    -0.78470
O1052       O  0.19319412  0.58974192  0.58635490    -0.83670
C1053       C  0.16206039  0.53912640  0.65136631     0.97360
C1054       C  0.22443577  0.60940036  0.57002124     1.03280
O1055       O  0.19671437  0.55577357  0.65326113    -0.79310
C1056       C  0.14596890  0.64234835  0.71587653     1.01580
Fe1057     Fe  0.55400759  0.33315769  0.30312094     1.65780
Fe1058     Fe  0.56377890  0.39873756  0.37462775     1.73250
Fe1059     Fe  0.63605346  0.39780144  0.33615384     1.54410
O1060       O  0.63683877  0.35104811  0.31303671    -0.83050
O1061       O  0.59175646  0.44987371  0.34602488    -0.81350
O1062       O  0.58179880  0.31122857  0.33143616    -0.85550
O1063       O  0.58840365  0.35338644  0.24565481    -0.80410
O1064       O  0.63270428  0.38373707  0.40845272    -0.82180
O1065       O  0.51605295  0.38008973  0.33010249    -0.84930
C1066       C  0.61541180  0.38417143  0.23576780     0.95840
C1067       C  0.61076337  0.31903688  0.31077660     1.03280
O1068       O  0.58447133  0.37811180  0.33429749    -1.13910
O1069       O  0.54343182  0.35345078  0.41369211    -0.76340
O1070       O  0.51642682  0.31117334  0.35987011    -0.79830
O1071       O  0.63527845  0.40773155  0.26628660    -0.80520
C1072       C  0.51979106  0.32253828  0.40245288     0.94740
O1073       O  0.52561836  0.35273437  0.26998618    -0.78470
O1074       O  0.60643603  0.41575801  0.41956687    -0.83670
C1075       C  0.62560587  0.46629875  0.35453567     0.97370
C1076       C  0.61797755  0.39610385  0.43591192     1.03280
O1077       O  0.64370002  0.44974997  0.35254347    -0.79310
C1078       C  0.50645754  0.36317506  0.29010413     1.01580
Fe1079     Fe  0.83558319  0.28431610  0.22007180     1.65780
Fe1080     Fe  0.90158981  0.34077421  0.29088696     1.73250
Fe1081     Fe  0.90036797  0.26722521  0.25294160     1.54410
O1082       O  0.85367927  0.21959234  0.22981010    -0.83050
O1083       O  0.95266922  0.36352476  0.26217750    -0.81350
O1084       O  0.81391370  0.23468314  0.24854566    -0.85550
O1085       O  0.85588945  0.27031379  0.16246811    -0.80410
O1086       O  0.88633901  0.25671621  0.32522247    -0.82180
O1087       O  0.88304537  0.36973381  0.24604942    -0.84930
C1088       C  0.88667200  0.27410936  0.15251616     0.95840
C1089       C  0.82166892  0.21359511  0.22768870     1.03280
O1090       O  0.88065626  0.29910290  0.25105090    -1.13910
O1091       O  0.85653713  0.31672672  0.33035436    -0.76340
O1092       O  0.81357765  0.29963188  0.27698360    -0.79830
O1093       O  0.91026489  0.27785685  0.18301474    -0.80520
C1094       C  0.82523340  0.30828312  0.31936787     0.94740
O1095       O  0.85469867  0.33217184  0.18678726    -0.78470
O1096       O  0.91832508  0.31512791  0.33625943    -0.83670
C1097       C  0.96896637  0.34607627  0.27118838     0.97360
C1098       C  0.89868732  0.28387852  0.35261142     1.03280
O1099       O  0.95232046  0.31142827  0.26943903    -0.79310
C1100       C  0.86556633  0.36201348  0.20646994     1.01580
Fe1101     Fe  0.78651478  0.45377999  0.13674563     1.65780
Fe1102     Fe  0.84307891  0.44434991  0.20744573     1.73250
Fe1103     Fe  0.76949744  0.37190264  0.16949637     1.54420
O1104       O  0.72182214  0.37083937  0.14638513    -0.83050
O1105       O  0.86581727  0.41609998  0.17860384    -0.81350
O1106       O  0.73690684  0.42567208  0.16526198    -0.85550
O1107       O  0.77255672  0.41950101  0.07909160    -0.80410
O1108       O  0.75896188  0.37536005  0.24175621    -0.82180
O1109       O  0.87203362  0.49184951  0.16260274    -0.84930
C1110       C  0.77634076  0.39251898  0.06911649     0.95840
C1111       C  0.71582531  0.39684374  0.14433362     1.03280
O1112       O  0.80135513  0.42355081  0.16766922    -1.13910
O1113       O  0.81922937  0.46547241  0.24701959    -0.76340
O1114       O  0.80174744  0.49103527  0.19369452    -0.79830
O1115       O  0.78012079  0.37268660  0.09958859    -0.80520
C1116       C  0.81054375  0.48815152  0.23604114     0.94740
O1117       O  0.83437539  0.48270946  0.10348308    -0.78470
O1118       O  0.81738679  0.40191265  0.25280644    -0.83670
C1119       C  0.84841273  0.38234459  0.18760420     0.97360
C1120       C  0.78611930  0.39024660  0.26914417     1.03280
O1121       O  0.81375618  0.36427473  0.18593275    -0.79310
C1122       C  0.86427678  0.50164055  0.12308994     1.01580
Fe1123     Fe  0.78658942  0.33306581  0.45253510     1.65780
Fe1124     Fe  0.84296273  0.39905201  0.38166054     1.73250
Fe1125     Fe  0.76942295  0.39780119  0.41963393     1.54410
O1126       O  0.72180469  0.35108475  0.44271499    -0.83050
O1127       O  0.86575861  0.45014586  0.41032902    -0.81350
O1128       O  0.73695136  0.31134492  0.42402829    -0.85550
O1129       O  0.77250598  0.35331359  0.01010929    -0.80410
O1130       O  0.75891784  0.38378611  0.34734312    -0.82180
O1131       O  0.87194255  0.38051755  0.42648590    -0.84930
C1132       C  0.77630394  0.38409301  0.02005442     0.95840
C1133       C  0.71582815  0.31908379  0.44483803     1.03280
O1134       O  0.80133018  0.37813272  0.42155247    -1.13910
O1135       O  0.81876871  0.35396836  0.34225498    -0.76340
O1136       O  0.80202599  0.31111286  0.39567079    -0.79830
O1137       O  0.78003809  0.40767894  0.98955672    -0.80520
C1138       C  0.81057982  0.32274653  0.35326420     0.94740
O1139       O  0.83444720  0.35226374  0.48584692    -0.78470
O1140       O  0.81732363  0.41581049  0.33632582    -0.83670
C1141       C  0.84828507  0.46642983  0.40138228     0.97360
C1142       C  0.78608487  0.39616608  0.31995707     1.03280
O1143       O  0.81363138  0.44976698  0.40317983    -0.79310
C1144       C  0.86427493  0.36311349  0.46612379     1.01580
Fe1145     Fe  0.67477618  0.22113727  0.46996059     1.65780
Fe1146     Fe  0.60880509  0.16477186  0.04089541     1.73250
Fe1147     Fe  0.60998837  0.23825553  0.50272533     1.54420
O1148       O  0.65665397  0.28587313  0.47955436    -0.83050
O1149       O  0.55773876  0.14195441  0.01213790    -0.81350
O1150       O  0.69647680  0.27083755  0.49826524    -0.85550
O1151       O  0.65446774  0.23507561  0.41229937    -0.80410
O1152       O  0.62402643  0.24888011  0.07498661    -0.82180
O1153       O  0.62736227  0.13575959  0.99619903    -0.84930
C1154       C  0.62369274  0.23129561  0.40234504     0.95840
C1155       C  0.68867438  0.29190259  0.47742088     1.03280
O1156       O  0.62972478  0.20639598  0.00095759    -1.13910
O1157       O  0.65386225  0.18886674  0.08036959    -0.76340
O1158       O  0.69678279  0.20587888  0.02694934    -0.79830
O1159       O  0.60009783  0.22754886  0.43283335    -0.80520
C1160       C  0.68514994  0.19726401  0.06935434     0.94740
O1161       O  0.65562490  0.17322197  0.43681429    -0.78470
O1162       O  0.59204336  0.19048861  0.08610664    -0.83670
C1163       C  0.54141740  0.15939449  0.02102883     0.97370
C1164       C  0.61170000  0.22174679  0.10241694     1.03280
O1165       O  0.55804670  0.19404112  0.01922135    -0.79310
C1166       C  0.64480024  0.14341866  0.45659230     1.01580
Fe1167     Fe  0.95634376  0.17235540  0.05305964     1.65780
Fe1168     Fe  0.94658099  0.10661439  0.12435092     1.73250
Fe1169     Fe  0.87431328  0.10765934  0.08594240     1.54410
O1170       O  0.87348834  0.15438870  0.06286176    -0.83050
O1171       O  0.91852919  0.05553872  0.09561685    -0.81350
O1172       O  0.92849060  0.19422233  0.08135534    -0.85550
O1173       O  0.92201741  0.15214888  0.49550850    -0.80410
O1174       O  0.87765034  0.12168708  0.15822475    -0.82180
O1175       O  0.99426482  0.12522418  0.07979508    -0.84930
C1176       C  0.89500521  0.12137477  0.48558204     0.95840
C1177       C  0.89953373  0.18641201  0.06068217     1.03280
O1178       O  0.92590848  0.12737107  0.08416301    -1.13910
O1179       O  0.96717947  0.15179781  0.16360419    -0.76340
O1180       O  0.49379935  0.19431353  0.10991003    -0.79830
O1181       O  0.87513491  0.09778633  0.01607244    -0.80520
C1182       C  0.99055657  0.18285173  0.15243163     0.94740
O1183       O  0.98484282  0.15290125  0.01993040    -0.78470
O1184       O  0.90394570  0.08967439  0.16934873    -0.83670
C1185       C  0.88470198  0.03913843  0.10421980     0.97360
C1186       C  0.89240516  0.10934455  0.18567644     1.03280
O1187       O  0.86663582  0.05571220  0.10230858    -0.79310
C1188       C  0.00392465  0.14230672  0.03992288     1.01580
Fe1189     Fe  0.72376052  0.05165114  0.38669935     1.65780
Fe1190     Fe  0.66744362  0.06114708  0.45772036     1.73250
Fe1191     Fe  0.74089390  0.13357045  0.41953336     1.54420
O1192       O  0.78853264  0.13458698  0.39634408    -0.83050
O1193       O  0.64454830  0.08928282  0.42895535    -0.81350
O1194       O  0.77343116  0.07970654  0.41507892    -0.85550
O1195       O  0.73771145  0.08594974  0.32908757    -0.80410
O1196       O  0.75154736  0.13018484  0.49178769    -0.82180
O1197       O  0.63842639  0.01355618  0.41302909    -0.84930
C1198       C  0.73392778  0.11293719  0.31916263     0.95840
C1199       C  0.79450968  0.10856823  0.39419146     1.03280
O1200       O  0.70903358  0.08193060  0.41773627    -1.13910
O1201       O  0.69162260  0.04025664  0.49714086    -0.76340
O1202       O  0.70849361  0.01433048  0.44361147    -0.79830
O1203       O  0.73018941  0.13277176  0.34966399    -0.80520
C1204       C  0.69993699  0.01733167  0.48604400     0.94740
O1205       O  0.67582839  0.02282446  0.35355375    -0.78470
O1206       O  0.69315452  0.10368049  0.00289368    -0.83670
C1207       C  0.66195087  0.12306980  0.43778479     0.97370
C1208       C  0.72441541  0.11533983  0.01921467     1.03280
O1209       O  0.69660962  0.14116991  0.43600016    -0.79310
C1210       C  0.64603198  0.00381012  0.37336923     1.01580
Fe1211     Fe  0.83543724  0.05161208  0.36916726     1.65780
Fe1212     Fe  0.90107500  0.06117943  0.29784756     1.73250
Fe1213     Fe  0.90027915  0.13356955  0.33618255     1.54420
O1214       O  0.85363305  0.13453871  0.35931310    -0.83050
O1215       O  0.95221328  0.08915100  0.32644844    -0.81350
O1216       O  0.81374282  0.07958544  0.34077232    -0.85550
O1217       O  0.85576011  0.08598135  0.42665824    -0.80410
O1218       O  0.88620539  0.13021878  0.26391472    -0.82180
O1219       O  0.88240832  0.01352806  0.34251043    -0.84930
C1220       C  0.88657273  0.11294984  0.43656100     0.95840
C1221       C  0.82159945  0.10851952  0.36152693     1.03280
O1222       O  0.88046102  0.08195814  0.33805958    -1.13910
O1223       O  0.85583656  0.04072913  0.25869766    -0.76340
O1224       O  0.81336455  0.01408825  0.31241080    -0.79830
O1225       O  0.91018105  0.13276833  0.40605472    -0.80520
C1226       C  0.82480616  0.01731561  0.26988823     0.94740
O1227       O  0.85472991  0.02298988  0.40235146    -0.78470
O1228       O  0.91807994  0.10377726  0.25277819    -0.83670
C1229       C  0.96867773  0.12297761  0.31782953     0.97360
C1230       C  0.89847636  0.11540135  0.23645870     1.03280
O1231       O  0.95217134  0.14110883  0.31974842    -0.79310
C1232       C  0.86533755  0.00390229  0.38240133     1.01580
Fe1233     Fe  0.67494486  0.45390335  0.11924722     1.65780
Fe1234     Fe  0.60922985  0.44430968  0.04800152     1.73250
Fe1235     Fe  0.61006997  0.37193888  0.08641629     1.54410
O1236       O  0.65669137  0.37094147  0.10954350    -0.83050
O1237       O  0.55813431  0.41634228  0.07671533    -0.81350
O1238       O  0.69661625  0.42587295  0.09095176    -0.85550
O1239       O  0.65462843  0.41960540  0.17682212    -0.80410
O1240       O  0.62412633  0.37522828  0.01416511    -0.82180
O1241       O  0.62787919  0.49196921  0.09260323    -0.84930
C1242       C  0.62382782  0.39262838  0.18675255     0.95840
C1243       C  0.68873599  0.39693424  0.11171714     1.03280
O1244       O  0.62991320  0.42356118  0.08818258    -1.13910
O1245       O  0.65441294  0.46488060  0.00873795    -0.76340
O1246       O  0.69700386  0.49132390  0.06238713    -0.79830
O1247       O  0.60020293  0.37280483  0.15627089    -0.80520
C1248       C  0.68551451  0.48815959  0.01989436     0.94740
O1249       O  0.65571230  0.48260963  0.15235263    -0.78470
O1250       O  0.59225546  0.40167373  0.50298437    -0.83670
C1251       C  0.54166928  0.38251983  0.06811883     0.97370
C1252       C  0.61187807  0.39005570  0.48669264     1.03280
O1253       O  0.55818329  0.36439764  0.07001090    -0.79310
C1254       C  0.64502807  0.50164672  0.13242947     1.01580
Fe1255     Fe  0.55398071  0.22107191  0.28571197     1.65780
Fe1256     Fe  0.56358061  0.16478113  0.21475110     1.73250
Fe1257     Fe  0.63593918  0.23833517  0.25289849     1.54410
O1258       O  0.63686015  0.28593716  0.27607742    -0.83050
O1259       O  0.59181381  0.14202147  0.24359230    -0.81350
O1260       O  0.58194980  0.27076476  0.25737693    -0.85550
O1261       O  0.58826756  0.23506184  0.34334958    -0.80410
O1262       O  0.63250436  0.24892019  0.18062076    -0.82180
O1263       O  0.51597328  0.13572718  0.25941227    -0.84930
C1264       C  0.61528214  0.23132118  0.35328889     0.95840
C1265       C  0.61081609  0.29188285  0.27822711     1.03280
O1266       O  0.58430945  0.20641336  0.25467653    -1.13910
O1267       O  0.54257404  0.18879626  0.17525885    -0.76340
O1268       O  0.51669844  0.20578041  0.22874353    -0.79830
O1269       O  0.63516217  0.22765037  0.32278757    -0.80520
C1270       C  0.51970159  0.19719450  0.18632280     0.94740
O1271       O  0.52523571  0.17313365  0.31885796    -0.78470
O1272       O  0.60610490  0.19053068  0.16956342    -0.83670
C1273       C  0.62559464  0.15946426  0.23470336     0.97360
C1274       C  0.61769140  0.22176941  0.15321743     1.03280
O1275       O  0.64365019  0.19412082  0.23645015    -0.79310
C1276       C  0.50620901  0.14334738  0.29904396     1.01580
Fe1277     Fe  0.95633386  0.28435237  0.03572467     1.65680
Fe1278     Fe  0.94677601  0.34091724  0.46512655     1.73250
Fe1279     Fe  0.87440859  0.26719875  0.00306586     1.54410
O1280       O  0.87343756  0.21956721  0.02618386    -0.83050
O1281       O  0.91839219  0.36346869  0.49408251    -0.81350
O1282       O  0.92829079  0.23470414  0.00731321    -0.85550
O1283       O  0.92210061  0.27039252  0.09344869    -0.80410
O1284       O  0.87789066  0.25671297  0.43079611    -0.82180
O1285       O  0.99428871  0.36993315  0.00991322    -0.84930
C1286       C  0.89508559  0.27412329  0.10344271     0.95840
C1287       C  0.89945726  0.21358889  0.02821224     1.03280
O1288       O  0.92605290  0.29912286  0.00481761    -1.13910
O1289       O  0.96812100  0.31736394  0.42543304    -0.76340
O1290       O  0.99349372  0.29955547  0.47866254    -0.79830
O1291       O  0.87520047  0.27782663  0.07297631    -0.80520
C1292       C  0.99065475  0.30845842  0.43635007     0.94740
O1293       O  0.98522709  0.33223344  0.06893735    -0.78470
O1294       O  0.90434206  0.31513879  0.41976809    -0.83670
C1295       C  0.88464783  0.34601434  0.48501550     0.97370
C1296       C  0.89274488  0.28388543  0.40342253     1.03280
O1297       O  0.86664093  0.31136180  0.48663967    -0.79310
C1298       C  0.00413912  0.36214082  0.04934606     1.01580
Fe1299     Fe  0.72365035  0.17240491  0.20262726     1.65780
Fe1300     Fe  0.66748949  0.10654365  0.13148986     1.73250
Fe1301     Fe  0.74093119  0.10773671  0.16973200     1.54420
O1302       O  0.78851110  0.15445395  0.19288317    -0.83050
O1303       O  0.64458315  0.05543348  0.16014634    -0.81350
O1304       O  0.77337663  0.19424306  0.17432215    -0.85550
O1305       O  0.73769469  0.15214426  0.26020934    -0.80410
O1306       O  0.75156940  0.12178563  0.09745482    -0.82180
O1307       O  0.63842806  0.12508538  0.17613960    -0.84930
C1308       C  0.73393349  0.12137743  0.27012505     0.95840
C1309       C  0.79448802  0.18645505  0.19508927     1.03280
O1310       O  0.70902144  0.12739927  0.17155545    -1.13910
O1311       O  0.69186987  0.15168882  0.09216700    -0.76340
O1312       O  0.70823651  0.19437657  0.14573129    -0.79830
O1313       O  0.73022797  0.09781631  0.23961523    -0.80520
C1314       C  0.69984272  0.18283387  0.10326210     0.94740
O1315       O  0.67570687  0.15305308  0.23578013    -0.78470
O1316       O  0.69319411  0.08974192  0.08635490    -0.83670
C1317       C  0.66206038  0.03912639  0.15136631     0.97360
C1318       C  0.72443577  0.10940036  0.07002125     1.03280
O1319       O  0.69671436  0.05577356  0.15326113    -0.79310
C1320       C  0.64596888  0.14234834  0.21587652     1.01580
Fe1321     Fe  0.55400760  0.33315768  0.80312098     1.65780
Fe1322     Fe  0.56377891  0.39873760  0.87462773     1.73250
Fe1323     Fe  0.63605347  0.39780145  0.83615384     1.54410
O1324       O  0.63683878  0.35104812  0.81303671    -0.83050
O1325       O  0.59175650  0.44987373  0.84602483    -0.81350
O1326       O  0.58179882  0.31122858  0.83143618    -0.85550
O1327       O  0.58840364  0.35338645  0.74565482    -0.80410
O1328       O  0.63270429  0.38373708  0.90845272    -0.82180
O1329       O  0.51605296  0.38008978  0.83010247    -0.84930
C1330       C  0.61541179  0.38417143  0.73576781     0.95840
C1331       C  0.61076339  0.31903690  0.81077661     1.03280
O1332       O  0.58447133  0.37811181  0.83429751    -1.13910
O1333       O  0.54343177  0.35345084  0.91369214    -0.76340
O1334       O  0.51642686  0.31117334  0.85987017    -0.79830
O1335       O  0.63527845  0.40773155  0.76628661    -0.80520
C1336       C  0.51979107  0.32253831  0.90245292     0.94740
O1337       O  0.52561834  0.35273433  0.76998623    -0.78470
O1338       O  0.60643603  0.41575803  0.91956686    -0.83670
C1339       C  0.62560590  0.46629877  0.85453565     0.97370
C1340       C  0.61797754  0.39610385  0.93591191     1.03280
O1341       O  0.64370004  0.44974998  0.85254348    -0.79310
C1342       C  0.50645754  0.36317507  0.79010413     1.01580
Fe1343     Fe  0.83558319  0.28431611  0.72007178     1.65780
Fe1344     Fe  0.90158980  0.34077419  0.79088697     1.73250
Fe1345     Fe  0.90036797  0.26722521  0.75294159     1.54410
O1346       O  0.85367928  0.21959234  0.72981008    -0.83050
O1347       O  0.95266922  0.36352476  0.76217752    -0.81350
O1348       O  0.81391370  0.23468314  0.74854564    -0.85550
O1349       O  0.85588946  0.27031379  0.66246810    -0.80410
O1350       O  0.88633900  0.25671620  0.82522246    -0.82180
O1351       O  0.88304536  0.36973380  0.74604945    -0.84930
C1352       C  0.88667201  0.27410936  0.65251615     0.95840
C1353       C  0.82166892  0.21359511  0.72768868     1.03280
O1354       O  0.88065626  0.29910289  0.75105089    -1.13910
O1355       O  0.85653712  0.31672668  0.83035436    -0.76340
O1356       O  0.81357765  0.29963189  0.77698359    -0.79830
O1357       O  0.91026490  0.27785686  0.68301473    -0.80520
C1358       C  0.82523339  0.30828310  0.81936787     0.94740
O1359       O  0.85469868  0.33217185  0.68678726    -0.78470
O1360       O  0.91832508  0.31512789  0.83625943    -0.83670
C1361       C  0.96896636  0.34607628  0.77118838     0.97360
C1362       C  0.89868732  0.28387850  0.85261141     1.03280
O1363       O  0.95232046  0.31142828  0.76943902    -0.79310
C1364       C  0.86556633  0.36201348  0.70646995     1.01580
Fe1365     Fe  0.78651478  0.45377999  0.63674562     1.65780
Fe1366     Fe  0.84307890  0.44434991  0.70744574     1.73250
Fe1367     Fe  0.76949743  0.37190264  0.66949637     1.54420
O1368       O  0.72182214  0.37083938  0.64638514    -0.83050
O1369       O  0.86581727  0.41609999  0.67860386    -0.81350
O1370       O  0.73690685  0.42567209  0.66526198    -0.85550
O1371       O  0.77255671  0.41950101  0.57909160    -0.80410
O1372       O  0.75896188  0.37536004  0.74175621    -0.82180
O1373       O  0.87203361  0.49184952  0.66260276    -0.84930
C1374       C  0.77634075  0.39251898  0.56911648     0.95840
C1375       C  0.71582531  0.39684375  0.64433362     1.03280
O1376       O  0.80135513  0.42355080  0.66766922    -1.13910
O1377       O  0.81922932  0.46547238  0.74701958    -0.76340
O1378       O  0.80174746  0.49103528  0.69369449    -0.79830
O1379       O  0.78012079  0.37268660  0.59958859    -0.80520
C1380       C  0.81054374  0.48815152  0.73604113     0.94740
O1381       O  0.83437540  0.48270945  0.60348307    -0.78470
O1382       O  0.81738678  0.40191264  0.75280644    -0.83670
C1383       C  0.84841273  0.38234460  0.68760421     0.97360
C1384       C  0.78611930  0.39024659  0.76914418     1.03280
O1385       O  0.81375618  0.36427473  0.68593274    -0.79310
C1386       C  0.86427678  0.50164054  0.62308994     1.01580
Fe1387     Fe  0.78658943  0.33306581  0.95253510     1.65780
Fe1388     Fe  0.84296274  0.39905200  0.88166053     1.73250
Fe1389     Fe  0.76942296  0.39780119  0.91963394     1.54410
O1390       O  0.72180470  0.35108474  0.94271500    -0.83050
O1391       O  0.86575862  0.45014585  0.91032902    -0.81350
O1392       O  0.73695137  0.31134492  0.92402830    -0.85550
O1393       O  0.77250596  0.35331359  0.51010928    -0.80410
O1394       O  0.75891785  0.38378610  0.84734313    -0.82180
O1395       O  0.87194256  0.38051755  0.92648589    -0.84930
C1396       C  0.77630393  0.38409301  0.52005441     0.95840
C1397       C  0.71582815  0.31908379  0.94483803     1.03280
O1398       O  0.80133019  0.37813271  0.92155247    -1.13910
O1399       O  0.81876873  0.35396836  0.84225497    -0.76340
O1400       O  0.80202600  0.31111285  0.89567078    -0.79830
O1401       O  0.78003807  0.40767894  0.48955672    -0.80520
C1402       C  0.81057982  0.32274653  0.85326419     0.94740
O1403       O  0.83444721  0.35226374  0.98584691    -0.78470
O1404       O  0.81732363  0.41581048  0.83632582    -0.83670
C1405       C  0.84828508  0.46642983  0.90138228     0.97360
C1406       C  0.78608487  0.39616607  0.81995707     1.03280
O1407       O  0.81363139  0.44976697  0.90317983    -0.79310
C1408       C  0.86427495  0.36311349  0.96612378     1.01580
Fe1409     Fe  0.67477618  0.22113725  0.96996058     1.65780
Fe1410     Fe  0.60880510  0.16477188  0.54089542     1.73250
Fe1411     Fe  0.60998837  0.23825552  0.00272532     1.54420
O1412       O  0.65665396  0.28587312  0.97955435    -0.83050
O1413       O  0.55773876  0.14195443  0.51213790    -0.81350
O1414       O  0.69647680  0.27083753  0.99826523    -0.85550
O1415       O  0.65446773  0.23507559  0.91229937    -0.80410
O1416       O  0.62402643  0.24888012  0.57498662    -0.82180
O1417       O  0.62736228  0.13575961  0.49619903    -0.84930
C1418       C  0.62369273  0.23129560  0.90234504     0.95840
C1419       C  0.68867438  0.29190258  0.97742088     1.03280
O1420       O  0.62972479  0.20639599  0.50095759    -1.13910
O1421       O  0.65386225  0.18886675  0.58036958    -0.76340
O1422       O  0.69678279  0.20587889  0.52694934    -0.79830
O1423       O  0.60009783  0.22754885  0.93283334    -0.80520
C1424       C  0.68514995  0.19726402  0.56935434     0.94740
O1425       O  0.65562489  0.17322195  0.93681430    -0.78470
O1426       O  0.59204336  0.19048862  0.58610665    -0.83670
C1427       C  0.54141741  0.15939450  0.52102884     0.97370
C1428       C  0.61170000  0.22174680  0.60241695     1.03280
O1429       O  0.55804670  0.19404113  0.51922136    -0.79310
C1430       C  0.64480023  0.14341864  0.95659230     1.01580
Fe1431     Fe  0.95634377  0.17235541  0.55305960     1.65780
Fe1432     Fe  0.94658100  0.10661443  0.62435095     1.73250
Fe1433     Fe  0.87431329  0.10765935  0.58594240     1.54410
O1434       O  0.87348834  0.15438871  0.56286176    -0.83050
O1435       O  0.91852922  0.05553875  0.59561690    -0.81350
O1436       O  0.92849062  0.19422235  0.58135530    -0.85550
O1437       O  0.92201741  0.15214888  0.99550852    -0.80410
O1438       O  0.87765034  0.12168710  0.65822474    -0.82180
O1439       O  0.99426484  0.12522423  0.57979512    -0.84930
C1440       C  0.89500522  0.12137478  0.98558205     0.95840
C1441       C  0.89953374  0.18641203  0.56068215     1.03280
O1442       O  0.92590849  0.12737108  0.58416300    -1.13910
O1443       O  0.96717942  0.15179788  0.66360418    -0.76340
O1444       O  0.49379938  0.19431354  0.60990998    -0.79830
O1445       O  0.87513490  0.09778633  0.51607244    -0.80520
C1446       C  0.99055658  0.18285176  0.65243160     0.94740
O1447       O  0.98484280  0.15290122  0.51993038    -0.78470
O1448       O  0.90394570  0.08967441  0.66934874    -0.83670
C1449       C  0.88470201  0.03913845  0.60421982     0.97360
C1450       C  0.89240515  0.10934457  0.68567645     1.03280
O1451       O  0.86663584  0.05571221  0.60230857    -0.79310
C1452       C  0.00392465  0.14230674  0.53992289     1.01580
Fe1453     Fe  0.72376053  0.05165114  0.88669934     1.65780
Fe1454     Fe  0.66744365  0.06114708  0.95772038     1.73250
Fe1455     Fe  0.74089391  0.13357045  0.91953336     1.54420
O1456       O  0.78853265  0.13458699  0.89634408    -0.83050
O1457       O  0.64454830  0.08928280  0.92895538    -0.81350
O1458       O  0.77343116  0.07970654  0.91507891    -0.85550
O1459       O  0.73771146  0.08594974  0.82908756    -0.80410
O1460       O  0.75154738  0.13018485  0.99178770    -0.82180
O1461       O  0.63842642  0.01355617  0.91302911    -0.84930
C1462       C  0.73392779  0.11293720  0.81916262     0.95840
C1463       C  0.79450969  0.10856823  0.89419146     1.03280
O1464       O  0.70903360  0.08193060  0.91773627    -1.13910
O1465       O  0.69162268  0.04025668  0.99714086    -0.76340
O1466       O  0.70849360  0.01433047  0.94361144    -0.79830
O1467       O  0.73018942  0.13277177  0.84966398    -0.80520
C1468       C  0.69993701  0.01733167  0.98604398     0.94740
O1469       O  0.67582839  0.02282447  0.85355374    -0.78470
O1470       O  0.69315450  0.10368048  0.50289368    -0.83670
C1471       C  0.66195087  0.12306979  0.93778480     0.97370
C1472       C  0.72441539  0.11533982  0.51921467     1.03280
O1473       O  0.69660962  0.14116990  0.93600016    -0.79310
C1474       C  0.64603199  0.00381013  0.87336924     1.01580
Fe1475     Fe  0.83543725  0.05161209  0.86916728     1.65780
Fe1476     Fe  0.90107499  0.06117944  0.79784754     1.73250
Fe1477     Fe  0.90027916  0.13356956  0.83618256     1.54420
O1478       O  0.85363306  0.13453872  0.85931311    -0.83050
O1479       O  0.95221328  0.08915100  0.82644842    -0.81350
O1480       O  0.81374283  0.07958544  0.84077232    -0.85550
O1481       O  0.85576012  0.08598137  0.92665824    -0.80410
O1482       O  0.88620540  0.13021880  0.76391473    -0.82180
O1483       O  0.88240830  0.01352806  0.84251042    -0.84930
C1484       C  0.88657273  0.11294985  0.93656101     0.95840
C1485       C  0.82159946  0.10851953  0.86152693     1.03280
O1486       O  0.88046103  0.08195815  0.83805959    -1.13910
O1487       O  0.85583653  0.04072918  0.75869767    -0.76340
O1488       O  0.81336456  0.01408825  0.81241083    -0.79830
O1489       O  0.91018106  0.13276834  0.90605473    -0.80520
C1490       C  0.82480616  0.01731562  0.76988825     0.94740
O1491       O  0.85472993  0.02298990  0.90235148    -0.78470
O1492       O  0.91807994  0.10377728  0.75277819    -0.83670
C1493       C  0.96867773  0.12297761  0.81782953     0.97360
C1494       C  0.89847636  0.11540137  0.73645871     1.03280
O1495       O  0.95217134  0.14110883  0.81974843    -0.79310
C1496       C  0.86533755  0.00390230  0.88240133     1.01580
Fe1497     Fe  0.67494486  0.45390335  0.61924724     1.65780
Fe1498     Fe  0.60922986  0.44430969  0.54800152     1.73250
Fe1499     Fe  0.61006997  0.37193889  0.58641630     1.54410
O1500       O  0.65669137  0.37094148  0.60954352    -0.83050
O1501       O  0.55813431  0.41634230  0.57671532    -0.81350
O1502       O  0.69661625  0.42587296  0.59095178    -0.85550
O1503       O  0.65462843  0.41960540  0.67682214    -0.80410
O1504       O  0.62412633  0.37522828  0.51416512    -0.82180
O1505       O  0.62787920  0.49196922  0.59260322    -0.84930
C1506       C  0.62382781  0.39262838  0.68675257     0.95840
C1507       C  0.68873599  0.39693425  0.61171715     1.03280
O1508       O  0.62991319  0.42356119  0.58818259    -1.13910
O1509       O  0.65441296  0.46488058  0.50873796    -0.76340
O1510       O  0.69700386  0.49132392  0.56238715    -0.79830
O1511       O  0.60020292  0.37280483  0.65627091    -0.80520
C1512       C  0.68551452  0.48815959  0.51989438     0.94740
O1513       O  0.65571228  0.48260962  0.65235265    -0.78470
O1514       O  0.59225546  0.40167373  0.00298436    -0.83670
C1515       C  0.54166928  0.38251984  0.56811884     0.97370
C1516       C  0.61187807  0.39005570  0.98669263     1.03280
O1517       O  0.55818330  0.36439765  0.57001092    -0.79310
C1518       C  0.64502807  0.50164672  0.63242947     1.01580
Fe1519     Fe  0.55398072  0.22107192  0.78571194     1.65780
Fe1520     Fe  0.56358062  0.16478111  0.71475111     1.73250
Fe1521     Fe  0.63593919  0.23833518  0.75289849     1.54410
O1522       O  0.63686017  0.28593717  0.77607743    -0.83050
O1523       O  0.59181383  0.14202149  0.74359234    -0.81350
O1524       O  0.58194983  0.27076478  0.75737692    -0.85550
O1525       O  0.58826756  0.23506183  0.84334957    -0.80410
O1526       O  0.63250436  0.24892019  0.68062076    -0.82180
O1527       O  0.51597330  0.13572716  0.75941229    -0.84930
C1528       C  0.61528214  0.23132118  0.85328888     0.95840
C1529       C  0.61081610  0.29188286  0.77822711     1.03280
O1530       O  0.58430945  0.20641336  0.75467651    -1.13910
O1531       O  0.54257400  0.18879618  0.67525884    -0.76340
O1532       O  0.51669847  0.20578045  0.72874348    -0.79830
O1533       O  0.63516217  0.22765036  0.82278757    -0.80520
C1534       C  0.51970160  0.19719450  0.68632277     0.94740
O1535       O  0.52523569  0.17313367  0.81885793    -0.78470
O1536       O  0.60610490  0.19053068  0.66956342    -0.83670
C1537       C  0.62559466  0.15946427  0.73470338     0.97360
C1538       C  0.61769140  0.22176941  0.65321743     1.03280
O1539       O  0.64365020  0.19412084  0.73645015    -0.79310
C1540       C  0.50620902  0.14334738  0.79904395     1.01580
Fe1541     Fe  0.95633385  0.28435236  0.53572464     1.65680
Fe1542     Fe  0.94677601  0.34091721  0.96512653     1.73250
Fe1543     Fe  0.87440859  0.26719876  0.50306586     1.54410
O1544       O  0.87343755  0.21956722  0.52618386    -0.83050
O1545       O  0.91839221  0.36346869  0.99408246    -0.81350
O1546       O  0.92829077  0.23470414  0.50731317    -0.85550
O1547       O  0.92210062  0.27039253  0.59344867    -0.80410
O1548       O  0.87789066  0.25671295  0.93079611    -0.82180
O1549       O  0.99428870  0.36993318  0.50991326    -0.84930
C1550       C  0.89508560  0.27412329  0.60344270     0.95840
C1551       C  0.89945725  0.21358889  0.52821222     1.03280
O1552       O  0.92605290  0.29912287  0.50481760    -1.13910
O1553       O  0.96812094  0.31736384  0.92543305    -0.76340
O1554       O  0.99349375  0.29955550  0.97866260    -0.79830
O1555       O  0.87520047  0.27782664  0.57297630    -0.80520
C1556       C  0.99065475  0.30845840  0.93635011     0.94740
O1557       O  0.98522711  0.33223343  0.56893732    -0.78470
O1558       O  0.90434205  0.31513876  0.91976809    -0.83670
C1559       C  0.88464785  0.34601434  0.98501548     0.97370
C1560       C  0.89274487  0.28388541  0.90342252     1.03280
O1561       O  0.86664095  0.31136180  0.98663967    -0.79310
C1562       C  0.00413913  0.36214083  0.54934607     1.01580
Fe1563     Fe  0.72365036  0.17240491  0.70262725     1.65780
Fe1564     Fe  0.66748948  0.10654364  0.63148988     1.73250
Fe1565     Fe  0.74093120  0.10773671  0.66973199     1.54420
O1566       O  0.78851111  0.15445395  0.69288315    -0.83050
O1567       O  0.64458316  0.05543348  0.66014637    -0.81350
O1568       O  0.77337664  0.19424305  0.67432213    -0.85550
O1569       O  0.73769470  0.15214426  0.76020933    -0.80410
O1570       O  0.75156938  0.12178562  0.59745482    -0.82180
O1571       O  0.63842806  0.12508537  0.67613963    -0.84930
C1572       C  0.73393350  0.12137744  0.77012504     0.95840
C1573       C  0.79448803  0.18645505  0.69508925     1.03280
O1574       O  0.70902144  0.12739927  0.67155545    -1.13910
O1575       O  0.69186983  0.15168881  0.59216701    -0.76340
O1576       O  0.70823653  0.19437658  0.64573127    -0.79830
O1577       O  0.73022798  0.09781632  0.73961522    -0.80520
C1578       C  0.69984271  0.18283386  0.60326210     0.94740
O1579       O  0.67570689  0.15305310  0.73578013    -0.78470
O1580       O  0.69319410  0.08974192  0.58635491    -0.83670
C1581       C  0.66206038  0.03912639  0.65136632     0.97360
C1582       C  0.72443575  0.10940035  0.57002125     1.03280
O1583       O  0.69671437  0.05577356  0.65326112    -0.79310
C1584       C  0.64596889  0.14234835  0.71587654     1.01580
Fe1585     Fe  0.55400759  0.83315767  0.30312096     1.65780
Fe1586     Fe  0.56377890  0.89873756  0.37462774     1.73250
Fe1587     Fe  0.63605346  0.89780144  0.33615384     1.54410
O1588       O  0.63683877  0.85104811  0.31303671    -0.83050
O1589       O  0.59175646  0.94987370  0.34602486    -0.81350
O1590       O  0.58179881  0.81122857  0.33143617    -0.85550
O1591       O  0.58840364  0.85338643  0.24565482    -0.80410
O1592       O  0.63270428  0.88373707  0.40845272    -0.82180
O1593       O  0.51605294  0.88008974  0.33010248    -0.84930
C1594       C  0.61541179  0.88417142  0.23576781     0.95840
C1595       C  0.61076338  0.81903688  0.31077661     1.03280
O1596       O  0.58447132  0.87811179  0.33429750    -1.13910
O1597       O  0.54343179  0.85345080  0.41369213    -0.76340
O1598       O  0.51642683  0.81117332  0.35987014    -0.79830
O1599       O  0.63527844  0.90773154  0.26628661    -0.80520
C1600       C  0.51979106  0.82253828  0.40245290     0.94740
O1601       O  0.52561834  0.85273434  0.26998621    -0.78470
O1602       O  0.60643602  0.91575801  0.41956687    -0.83670
C1603       C  0.62560587  0.96629875  0.35453566     0.97370
C1604       C  0.61797754  0.89610384  0.43591191     1.03280
O1605       O  0.64370002  0.94974996  0.35254347    -0.79310
C1606       C  0.50645753  0.86317505  0.29010413     1.01580
Fe1607     Fe  0.83558317  0.78431609  0.22007181     1.65780
Fe1608     Fe  0.90158981  0.84077420  0.29088696     1.73250
Fe1609     Fe  0.90036797  0.76722520  0.25294160     1.54410
O1610       O  0.85367927  0.71959233  0.22981011    -0.83050
O1611       O  0.95266921  0.86352475  0.26217750    -0.81350
O1612       O  0.81391370  0.73468312  0.24854568    -0.85550
O1613       O  0.85588944  0.77031378  0.16246812    -0.80410
O1614       O  0.88633900  0.75671620  0.32522247    -0.82180
O1615       O  0.88304537  0.86973380  0.24604942    -0.84930
C1616       C  0.88667199  0.77410935  0.15251617     0.95840
C1617       C  0.82166892  0.71359510  0.22768871     1.03280
O1618       O  0.88065625  0.79910289  0.25105090    -1.13910
O1619       O  0.85653713  0.81672673  0.33035437    -0.76340
O1620       O  0.81357764  0.79963186  0.27698362    -0.79830
O1621       O  0.91026488  0.77785685  0.18301475    -0.80520
C1622       C  0.82523340  0.80828311  0.31936789     0.94740
O1623       O  0.85469864  0.83217182  0.18678728    -0.78470
O1624       O  0.91832507  0.81512790  0.33625944    -0.83670
C1625       C  0.96896636  0.84607626  0.27118838     0.97360
C1626       C  0.89868731  0.78387851  0.35261142     1.03280
O1627       O  0.95232045  0.81142826  0.26943904    -0.79310
C1628       C  0.86556631  0.86201347  0.20646994     1.01580
Fe1629     Fe  0.78651477  0.95377999  0.13674563     1.65780
Fe1630     Fe  0.84307890  0.94434991  0.20744573     1.73250
Fe1631     Fe  0.76949743  0.87190264  0.16949637     1.54420
O1632       O  0.72182213  0.87083937  0.14638513    -0.83050
O1633       O  0.86581727  0.91609997  0.17860384    -0.81350
O1634       O  0.73690684  0.92567208  0.16526198    -0.85550
O1635       O  0.77255671  0.91950101  0.07909160    -0.80410
O1636       O  0.75896188  0.87536004  0.24175621    -0.82180
O1637       O  0.87203361  0.99184951  0.16260274    -0.84930
C1638       C  0.77634074  0.89251898  0.06911648     0.95840
C1639       C  0.71582530  0.89684374  0.14433362     1.03280
O1640       O  0.80135512  0.92355080  0.16766922    -1.13910
O1641       O  0.81922934  0.96547239  0.24701958    -0.76340
O1642       O  0.80174744  0.99103527  0.19369451    -0.79830
O1643       O  0.78012078  0.87268660  0.09958859    -0.80520
C1644       C  0.81054374  0.98815151  0.23604114     0.94740
O1645       O  0.83437539  0.98270945  0.10348308    -0.78470
O1646       O  0.81738678  0.90191264  0.25280644    -0.83670
C1647       C  0.84841272  0.88234459  0.18760420     0.97360
C1648       C  0.78611930  0.89024659  0.26914417     1.03280
O1649       O  0.81375617  0.86427472  0.18593274    -0.79310
C1650       C  0.86427678  0.00164054  0.12308994     1.01580
Fe1651     Fe  0.78658942  0.83306581  0.45253511     1.65780
Fe1652     Fe  0.84296273  0.89905199  0.38166053     1.73250
Fe1653     Fe  0.76942295  0.89780119  0.41963394     1.54410
O1654       O  0.72180469  0.85108474  0.44271500    -0.83050
O1655       O  0.86575862  0.95014585  0.41032901    -0.81350
O1656       O  0.73695137  0.81134492  0.42402830    -0.85550
O1657       O  0.77250597  0.85331359  0.01010928    -0.80410
O1658       O  0.75891784  0.88378610  0.34734312    -0.82180
O1659       O  0.87194255  0.88051753  0.42648589    -0.84930
C1660       C  0.77630393  0.88409302  0.02005441     0.95840
C1661       C  0.71582815  0.81908379  0.44483804     1.03280
O1662       O  0.80133018  0.87813271  0.42155248    -1.13910
O1663       O  0.81876868  0.85396834  0.34225499    -0.76340
O1664       O  0.80202599  0.81111285  0.39567081    -0.79830
O1665       O  0.78003808  0.90767894  0.98955671    -0.80520
C1666       C  0.81057981  0.82274652  0.35326421     0.94740
O1667       O  0.83444721  0.85226374  0.48584693    -0.78470
O1668       O  0.81732362  0.91581047  0.33632582    -0.83670
C1669       C  0.84828508  0.96642983  0.40138227     0.97360
C1670       C  0.78608486  0.89616607  0.31995707     1.03280
O1671       O  0.81363139  0.94976697  0.40317983    -0.79310
C1672       C  0.86427493  0.86311349  0.46612379     1.01580
Fe1673     Fe  0.67477619  0.72113726  0.46996060     1.65780
Fe1674     Fe  0.60880510  0.66477186  0.04089540     1.73250
Fe1675     Fe  0.60998836  0.73825552  0.50272533     1.54420
O1676       O  0.65665396  0.78587312  0.47955436    -0.83050
O1677       O  0.55773877  0.64195442  0.01213788    -0.81350
O1678       O  0.69647680  0.77083754  0.49826525    -0.85550
O1679       O  0.65446774  0.73507560  0.41229937    -0.80410
O1680       O  0.62402644  0.74888011  0.07498661    -0.82180
O1681       O  0.62736228  0.63575959  0.99619901    -0.84930
C1682       C  0.62369273  0.73129560  0.40234504     0.95840
C1683       C  0.68867438  0.79190258  0.47742089     1.03280
O1684       O  0.62972480  0.70639599  0.00095759    -1.13910
O1685       O  0.65386225  0.68886671  0.08036959    -0.76340
O1686       O  0.69678281  0.70587891  0.02694936    -0.79830
O1687       O  0.60009783  0.72754885  0.43283335    -0.80520
C1688       C  0.68514995  0.69726402  0.06935435     0.94740
O1689       O  0.65562491  0.67322196  0.43681431    -0.78470
O1690       O  0.59204337  0.69048861  0.08610664    -0.83670
C1691       C  0.54141741  0.65939449  0.02102883     0.97370
C1692       C  0.61170000  0.72174679  0.10241694     1.03280
O1693       O  0.55804671  0.69404113  0.01922136    -0.79310
C1694       C  0.64480024  0.64341865  0.45659230     1.01580
Fe1695     Fe  0.95634376  0.67235541  0.05305963     1.65780
Fe1696     Fe  0.94658099  0.60661440  0.12435092     1.73250
Fe1697     Fe  0.87431329  0.60765934  0.08594239     1.54410
O1698       O  0.87348833  0.65438870  0.06286175    -0.83050
O1699       O  0.91852919  0.55553872  0.09561685    -0.81350
O1700       O  0.92849060  0.69422233  0.08135534    -0.85550
O1701       O  0.92201741  0.65214888  0.49550851    -0.80410
O1702       O  0.87765034  0.62168708  0.15822474    -0.82180
O1703       O  0.99426483  0.62522419  0.07979508    -0.84930
C1704       C  0.89500521  0.62137478  0.48558205     0.95840
C1705       C  0.89953372  0.68641201  0.06068216     1.03280
O1706       O  0.92590848  0.62737107  0.08416300    -1.13910
O1707       O  0.96717946  0.65179783  0.16360418    -0.76340
O1708       O  0.49379937  0.69431353  0.10991001    -0.79830
O1709       O  0.87513491  0.59778633  0.01607243    -0.80520
C1710       C  0.99055657  0.68285173  0.15243162     0.94740
O1711       O  0.98484282  0.65290125  0.01993039    -0.78470
O1712       O  0.90394570  0.58967440  0.16934873    -0.83670
C1713       C  0.88470199  0.53913843  0.10421980     0.97360
C1714       C  0.89240516  0.60934456  0.18567644     1.03280
O1715       O  0.86663583  0.55571220  0.10230857    -0.79310
C1716       C  0.00392465  0.64230673  0.03992288     1.01580
Fe1717     Fe  0.72376052  0.55165114  0.38669934     1.65780
Fe1718     Fe  0.66744364  0.56114708  0.45772038     1.73250
Fe1719     Fe  0.74089390  0.63357045  0.41953336     1.54420
O1720       O  0.78853265  0.63458698  0.39634408    -0.83050
O1721       O  0.64454830  0.58928280  0.42895537    -0.81350
O1722       O  0.77343116  0.57970654  0.41507890    -0.85550
O1723       O  0.73771145  0.58594974  0.32908756    -0.80410
O1724       O  0.75154738  0.63018485  0.49178769    -0.82180
O1725       O  0.63842641  0.51355617  0.41302911    -0.84930
C1726       C  0.73392778  0.61293719  0.31916262     0.95840
C1727       C  0.79450969  0.60856823  0.39419145     1.03280
O1728       O  0.70903359  0.58193060  0.41773627    -1.13910
O1729       O  0.69162266  0.54025667  0.49714086    -0.76340
O1730       O  0.70849360  0.51433047  0.44361145    -0.79830
O1731       O  0.73018941  0.63277176  0.34966398    -0.80520
C1732       C  0.69993700  0.51733167  0.48604399     0.94740
O1733       O  0.67582838  0.52282446  0.35355374    -0.78470
O1734       O  0.69315454  0.60368050  0.00289368    -0.83670
C1735       C  0.66195087  0.62306979  0.43778480     0.97370
C1736       C  0.72441542  0.61533984  0.01921467     1.03280
O1737       O  0.69660962  0.64116990  0.43600016    -0.79310
C1738       C  0.64603199  0.50381012  0.37336924     1.01580
Fe1739     Fe  0.83543724  0.55161209  0.36916726     1.65780
Fe1740     Fe  0.90107499  0.56117943  0.29784755     1.73250
Fe1741     Fe  0.90027916  0.63356955  0.33618255     1.54420
O1742       O  0.85363306  0.63453872  0.35931310    -0.83050
O1743       O  0.95221327  0.58915100  0.32644843    -0.81350
O1744       O  0.81374283  0.57958544  0.34077231    -0.85550
O1745       O  0.85576011  0.58598136  0.42665824    -0.80410
O1746       O  0.88620540  0.63021879  0.26391472    -0.82180
O1747       O  0.88240830  0.51352806  0.34251043    -0.84930
C1748       C  0.88657273  0.61294984  0.43656100     0.95840
C1749       C  0.82159946  0.60851953  0.36152692     1.03280
O1750       O  0.88046103  0.58195815  0.33805958    -1.13910
O1751       O  0.85583654  0.54072915  0.25869766    -0.76340
O1752       O  0.81336455  0.51408825  0.31241081    -0.79830
O1753       O  0.91018106  0.63276833  0.40605473    -0.80520
C1754       C  0.82480616  0.51731561  0.26988824     0.94740
O1755       O  0.85472992  0.52298989  0.40235147    -0.78470
O1756       O  0.91807994  0.60377726  0.25277818    -0.83670
C1757       C  0.96867773  0.62297760  0.31782953     0.97360
C1758       C  0.89847636  0.61540136  0.23645870     1.03280
O1759       O  0.95217134  0.64110883  0.31974842    -0.79310
C1760       C  0.86533755  0.50390229  0.38240133     1.01580
Fe1761     Fe  0.67494485  0.95390335  0.11924724     1.65780
Fe1762     Fe  0.60922985  0.94430968  0.04800152     1.73250
Fe1763     Fe  0.61006996  0.87193888  0.08641630     1.54410
O1764       O  0.65669136  0.87094147  0.10954351    -0.83050
O1765       O  0.55813431  0.91634229  0.07671532    -0.81350
O1766       O  0.69661624  0.92587295  0.09095177    -0.85550
O1767       O  0.65462842  0.91960539  0.17682213    -0.80410
O1768       O  0.62412632  0.87522828  0.01416512    -0.82180
O1769       O  0.62787920  0.99196922  0.09260323    -0.84930
C1770       C  0.62382780  0.89262838  0.18675256     0.95840
C1771       C  0.68873599  0.89693424  0.11171715     1.03280
O1772       O  0.62991319  0.92356118  0.08818259    -1.13910
O1773       O  0.65441295  0.96488058  0.00873796    -0.76340
O1774       O  0.69700386  0.99132391  0.06238715    -0.79830
O1775       O  0.60020291  0.87280483  0.15627090    -0.80520
C1776       C  0.68551451  0.98815959  0.01989438     0.94740
O1777       O  0.65571228  0.98260962  0.15235265    -0.78470
O1778       O  0.59225546  0.90167372  0.50298437    -0.83670
C1779       C  0.54166927  0.88251983  0.06811884     0.97370
C1780       C  0.61187806  0.89005569  0.48669264     1.03280
O1781       O  0.55818329  0.86439764  0.07001091    -0.79310
C1782       C  0.64502807  0.00164671  0.13242947     1.01580
Fe1783     Fe  0.55398071  0.72107191  0.28571196     1.65780
Fe1784     Fe  0.56358061  0.66478112  0.21475110     1.73250
Fe1785     Fe  0.63593919  0.73833517  0.25289849     1.54410
O1786       O  0.63686016  0.78593716  0.27607742    -0.83050
O1787       O  0.59181382  0.64202147  0.24359231    -0.81350
O1788       O  0.58194981  0.77076476  0.25737693    -0.85550
O1789       O  0.58826756  0.73506183  0.34334958    -0.80410
O1790       O  0.63250436  0.74892018  0.18062076    -0.82180
O1791       O  0.51597329  0.63572717  0.25941227    -0.84930
C1792       C  0.61528214  0.73132117  0.35328889     0.95840
C1793       C  0.61081609  0.79188285  0.27822711     1.03280
O1794       O  0.58430945  0.70641335  0.25467652    -1.13910
O1795       O  0.54257402  0.68879623  0.17525885    -0.76340
O1796       O  0.51669845  0.70578042  0.22874351    -0.79830
O1797       O  0.63516218  0.72765036  0.32278757    -0.80520
C1798       C  0.51970160  0.69719450  0.18632279     0.94740
O1799       O  0.52523570  0.67313365  0.31885795    -0.78470
O1800       O  0.60610490  0.69053068  0.16956342    -0.83670
C1801       C  0.62559465  0.65946426  0.23470336     0.97360
C1802       C  0.61769140  0.72176940  0.15321743     1.03280
O1803       O  0.64365020  0.69412083  0.23645015    -0.79310
C1804       C  0.50620901  0.64334737  0.29904395     1.01580
Fe1805     Fe  0.95633385  0.78435236  0.03572467     1.65680
Fe1806     Fe  0.94677600  0.84091723  0.46512655     1.73250
Fe1807     Fe  0.87440858  0.76719875  0.00306587     1.54410
O1808       O  0.87343755  0.71956721  0.02618387    -0.83050
O1809       O  0.91839219  0.86346869  0.49408250    -0.81350
O1810       O  0.92829078  0.73470414  0.00731321    -0.85550
O1811       O  0.92210061  0.77039252  0.09344870    -0.80410
O1812       O  0.87789066  0.75671296  0.43079612    -0.82180
O1813       O  0.99428870  0.86993315  0.00991323    -0.84930
C1814       C  0.89508558  0.77412328  0.10344272     0.95840
C1815       C  0.89945725  0.71358889  0.02821224     1.03280
O1816       O  0.92605289  0.79912286  0.00481762    -1.13910
O1817       O  0.96812097  0.81736390  0.42543305    -0.76340
O1818       O  0.99349372  0.79955547  0.47866257    -0.79830
O1819       O  0.87520046  0.77782663  0.07297632    -0.80520
C1820       C  0.99065474  0.80845841  0.43635009     0.94740
O1821       O  0.98522709  0.83223344  0.06893735    -0.78470
O1822       O  0.90434206  0.81513878  0.41976810    -0.83670
C1823       C  0.88464783  0.84601433  0.48501550     0.97370
C1824       C  0.89274487  0.78388542  0.40342253     1.03280
O1825       O  0.86664093  0.81136180  0.48663967    -0.79310
C1826       C  0.00413912  0.86214082  0.04934606     1.01580
Fe1827     Fe  0.72365036  0.67240491  0.20262727     1.65780
Fe1828     Fe  0.66748950  0.60654366  0.13148985     1.73250
Fe1829     Fe  0.74093120  0.60773671  0.16973199     1.54420
O1830       O  0.78851111  0.65445395  0.19288317    -0.83050
O1831       O  0.64458316  0.55543349  0.16014632    -0.81350
O1832       O  0.77337664  0.69424306  0.17432215    -0.85550
O1833       O  0.73769470  0.65214426  0.26020934    -0.80410
O1834       O  0.75156941  0.62178563  0.09745483    -0.82180
O1835       O  0.63842808  0.62508540  0.17613959    -0.84930
C1836       C  0.73393349  0.62137743  0.27012504     0.95840
C1837       C  0.79448802  0.68645504  0.19508927     1.03280
O1838       O  0.70902145  0.62739927  0.17155545    -1.13910
O1839       O  0.69186990  0.65168884  0.09216700    -0.76340
O1840       O  0.70823652  0.69437658  0.14573130    -0.79830
O1841       O  0.73022797  0.59781631  0.23961522    -0.80520
C1842       C  0.69984274  0.68283388  0.10326211     0.94740
O1843       O  0.67570687  0.65305307  0.23578013    -0.78470
O1844       O  0.69319412  0.58974193  0.08635490    -0.83670
C1845       C  0.66206038  0.53912640  0.15136630     0.97360
C1846       C  0.72443578  0.60940037  0.07002125     1.03280
O1847       O  0.69671436  0.55577356  0.15326113    -0.79310
C1848       C  0.64596889  0.64234835  0.21587652     1.01580
Fe1849     Fe  0.55400759  0.83315768  0.80312096     1.65780
Fe1850     Fe  0.56377891  0.89873757  0.87462775     1.73250
Fe1851     Fe  0.63605346  0.89780144  0.83615384     1.54410
O1852       O  0.63683877  0.85104811  0.81303672    -0.83050
O1853       O  0.59175648  0.94987371  0.84602486    -0.81350
O1854       O  0.58179880  0.81122857  0.83143617    -0.85550
O1855       O  0.58840364  0.85338644  0.74565482    -0.80410
O1856       O  0.63270428  0.88373707  0.90845273    -0.82180
O1857       O  0.51605295  0.88008975  0.83010249    -0.84930
C1858       C  0.61541179  0.88417142  0.73576781     0.95840
C1859       C  0.61076338  0.81903688  0.81077661     1.03280
O1860       O  0.58447133  0.87811180  0.83429751    -1.13910
O1861       O  0.54343180  0.85345081  0.91369214    -0.76340
O1862       O  0.51642683  0.81117334  0.85987014    -0.79830
O1863       O  0.63527845  0.90773154  0.76628661    -0.80520
C1864       C  0.51979106  0.82253830  0.90245290     0.94740
O1865       O  0.52561835  0.85273436  0.76998621    -0.78470
O1866       O  0.60643603  0.91575802  0.91956687    -0.83670
C1867       C  0.62560588  0.96629875  0.85453566     0.97370
C1868       C  0.61797754  0.89610385  0.93591192     1.03280
O1869       O  0.64370003  0.94974997  0.85254348    -0.79310
C1870       C  0.50645754  0.86317506  0.79010414     1.01580
Fe1871     Fe  0.83558319  0.78431610  0.72007179     1.65780
Fe1872     Fe  0.90158979  0.84077419  0.79088697     1.73250
Fe1873     Fe  0.90036797  0.76722520  0.75294160     1.54410
O1874       O  0.85367927  0.71959233  0.72981010    -0.83050
O1875       O  0.95266921  0.86352476  0.76217753    -0.81350
O1876       O  0.81391370  0.73468314  0.74854566    -0.85550
O1877       O  0.85588946  0.77031378  0.66246811    -0.80410
O1878       O  0.88633900  0.75671620  0.82522247    -0.82180
O1879       O  0.88304535  0.86973379  0.74604945    -0.84930
C1880       C  0.88667200  0.77410935  0.65251616     0.95840
C1881       C  0.82166892  0.71359511  0.72768869     1.03280
O1882       O  0.88065626  0.79910289  0.75105090    -1.13910
O1883       O  0.85653711  0.81672666  0.83035436    -0.76340
O1884       O  0.81357765  0.79963189  0.77698359    -0.79830
O1885       O  0.91026489  0.77785685  0.68301475    -0.80520
C1886       C  0.82523339  0.80828310  0.81936787     0.94740
O1887       O  0.85469868  0.83217184  0.68678726    -0.78470
O1888       O  0.91832507  0.81512789  0.83625944    -0.83670
C1889       C  0.96896636  0.84607627  0.77118839     0.97360
C1890       C  0.89868731  0.78387850  0.85261142     1.03280
O1891       O  0.95232046  0.81142827  0.76943903    -0.79310
C1892       C  0.86556633  0.86201347  0.70646994     1.01580
Fe1893     Fe  0.78651479  0.95378000  0.63674564     1.65780
Fe1894     Fe  0.84307893  0.94434992  0.70744573     1.73250
Fe1895     Fe  0.76949744  0.87190265  0.66949638     1.54420
O1896       O  0.72182215  0.87083938  0.64638513    -0.83050
O1897       O  0.86581728  0.91609997  0.67860383    -0.81350
O1898       O  0.73690686  0.92567209  0.66526198    -0.85550
O1899       O  0.77255674  0.91950103  0.57909160    -0.80410
O1900       O  0.75896190  0.87536006  0.74175621    -0.82180
O1901       O  0.87203365  0.99184952  0.66260274    -0.84930
C1902       C  0.77634076  0.89251899  0.56911649     0.95840
C1903       C  0.71582532  0.89684375  0.64433362     1.03280
O1904       O  0.80135515  0.92355082  0.66766923    -1.13910
O1905       O  0.81922941  0.96547243  0.74701959    -0.76340
O1906       O  0.80174744  0.99103527  0.69369453    -0.79830
O1907       O  0.78012080  0.87268661  0.59958860    -0.80520
C1908       C  0.81054377  0.98815153  0.73604116     0.94740
O1909       O  0.83437541  0.98270948  0.60348310    -0.78470
O1910       O  0.81738680  0.90191266  0.75280644    -0.83670
C1911       C  0.84841273  0.88234459  0.68760421     0.97360
C1912       C  0.78611932  0.89024660  0.76914417     1.03280
O1913       O  0.81375618  0.86427473  0.68593275    -0.79310
C1914       C  0.86427681  0.00164056  0.62308995     1.01580
Fe1915     Fe  0.78658942  0.83306581  0.95253509     1.65780
Fe1916     Fe  0.84296275  0.89905202  0.88166055     1.73250
Fe1917     Fe  0.76942296  0.89780120  0.91963393     1.54410
O1918       O  0.72180469  0.85108475  0.94271499    -0.83050
O1919       O  0.86575862  0.95014587  0.91032903    -0.81350
O1920       O  0.73695136  0.81134493  0.92402828    -0.85550
O1921       O  0.77250597  0.85331360  0.51010929    -0.80410
O1922       O  0.75891785  0.88378611  0.84734312    -0.82180
O1923       O  0.87194257  0.88051757  0.92648592    -0.84930
C1924       C  0.77630394  0.88409302  0.52005442     0.95840
C1925       C  0.71582815  0.81908380  0.94483803     1.03280
O1926       O  0.80133018  0.87813272  0.92155246    -1.13910
O1927       O  0.81876876  0.85396838  0.84225498    -0.76340
O1928       O  0.80202598  0.81111285  0.89567077    -0.79830
O1929       O  0.78003808  0.90767894  0.48955672    -0.80520
C1930       C  0.81057983  0.82274654  0.85326419     0.94740
O1931       O  0.83444720  0.85226372  0.98584691    -0.78470
O1932       O  0.81732364  0.91581049  0.83632582    -0.83670
C1933       C  0.84828507  0.96642984  0.90138228     0.97360
C1934       C  0.78608488  0.89616608  0.81995707     1.03280
O1935       O  0.81363139  0.94976698  0.90317982    -0.79310
C1936       C  0.86427494  0.86311349  0.96612379     1.01580
Fe1937     Fe  0.67477620  0.72113727  0.96996060     1.65780
Fe1938     Fe  0.60880509  0.66477186  0.54089541     1.73250
Fe1939     Fe  0.60998837  0.73825553  0.00272533     1.54420
O1940       O  0.65665396  0.78587313  0.97955436    -0.83050
O1941       O  0.55773876  0.64195442  0.51213788    -0.81350
O1942       O  0.69647681  0.77083755  0.99826524    -0.85550
O1943       O  0.65446774  0.73507560  0.91229937    -0.80410
O1944       O  0.62402643  0.74888011  0.57498661    -0.82180
O1945       O  0.62736227  0.63575959  0.49619902    -0.84930
C1946       C  0.62369274  0.73129560  0.90234504     0.95840
C1947       C  0.68867438  0.79190259  0.97742088     1.03280
O1948       O  0.62972479  0.70639598  0.50095759    -1.13910
O1949       O  0.65386224  0.68886671  0.58036959    -0.76340
O1950       O  0.69678279  0.70587890  0.52694936    -0.79830
O1951       O  0.60009784  0.72754885  0.93283335    -0.80520
C1952       C  0.68514994  0.69726401  0.56935436     0.94740
O1953       O  0.65562493  0.67322197  0.93681431    -0.78470
O1954       O  0.59204336  0.69048861  0.58610665    -0.83670
C1955       C  0.54141740  0.65939449  0.52102883     0.97370
C1956       C  0.61170000  0.72174679  0.60241694     1.03280
O1957       O  0.55804670  0.69404112  0.51922136    -0.79310
C1958       C  0.64480025  0.64341865  0.95659230     1.01580
Fe1959     Fe  0.95634376  0.67235540  0.55305963     1.65780
Fe1960     Fe  0.94658099  0.60661439  0.62435091     1.73250
Fe1961     Fe  0.87431329  0.60765934  0.58594240     1.54410
O1962       O  0.87348834  0.65438870  0.56286176    -0.83050
O1963       O  0.91852919  0.55553872  0.59561684    -0.81350
O1964       O  0.92849060  0.69422233  0.58135534    -0.85550
O1965       O  0.92201741  0.65214888  0.99550851    -0.80410
O1966       O  0.87765035  0.62168708  0.65822475    -0.82180
O1967       O  0.99426483  0.62522418  0.57979507    -0.84930
C1968       C  0.89500522  0.62137478  0.98558204     0.95840
C1969       C  0.89953373  0.68641201  0.56068217     1.03280
O1970       O  0.92590848  0.62737107  0.58416300    -1.13910
O1971       O  0.96717947  0.65179782  0.66360418    -0.76340
O1972       O  0.49379936  0.69431352  0.60991003    -0.79830
O1973       O  0.87513490  0.59778633  0.51607244    -0.80520
C1974       C  0.99055658  0.68285173  0.65243162     0.94740
O1975       O  0.98484282  0.65290125  0.51993039    -0.78470
O1976       O  0.90394570  0.58967439  0.66934873    -0.83670
C1977       C  0.88470198  0.53913843  0.60421980     0.97360
C1978       C  0.89240516  0.60934455  0.68567644     1.03280
O1979       O  0.86663582  0.55571220  0.60230858    -0.79310
C1980       C  0.00392465  0.64230673  0.53992288     1.01580
Fe1981     Fe  0.72376054  0.55165115  0.88669933     1.65780
Fe1982     Fe  0.66744367  0.56114709  0.95772037     1.73250
Fe1983     Fe  0.74089393  0.63357046  0.91953336     1.54420
O1984       O  0.78853267  0.63458699  0.89634408    -0.83050
O1985       O  0.64454832  0.58928281  0.92895538    -0.81350
O1986       O  0.77343118  0.57970654  0.91507890    -0.85550
O1987       O  0.73771148  0.58594975  0.82908756    -0.80410
O1988       O  0.75154740  0.63018485  0.99178769    -0.82180
O1989       O  0.63842644  0.51355618  0.91302911    -0.84930
C1990       C  0.73392781  0.61293721  0.81916262     0.95840
C1991       C  0.79450971  0.60856824  0.89419145     1.03280
O1992       O  0.70903361  0.58193061  0.91773626    -1.13910
O1993       O  0.69162271  0.54025669  0.99714085    -0.76340
O1994       O  0.70849361  0.51433047  0.94361142    -0.79830
O1995       O  0.73018944  0.63277177  0.84966398    -0.80520
C1996       C  0.69993702  0.51733167  0.98604397     0.94740
O1997       O  0.67582841  0.52282449  0.85355373    -0.78470
O1998       O  0.69315452  0.60368049  0.50289368    -0.83670
C1999       C  0.66195089  0.62306979  0.93778480     0.97370
C2000       C  0.72441541  0.61533983  0.51921467     1.03280
O2001       O  0.69660964  0.64116991  0.93600015    -0.79310
C2002       C  0.64603201  0.50381014  0.87336923     1.01580
Fe2003     Fe  0.83543725  0.55161209  0.86916725     1.65780
Fe2004     Fe  0.90107502  0.56117943  0.79784756     1.73250
Fe2005     Fe  0.90027918  0.63356955  0.83618255     1.54420
O2006       O  0.85363308  0.63453872  0.85931310    -0.83050
O2007       O  0.95221329  0.58915101  0.82644845    -0.81350
O2008       O  0.81374285  0.57958546  0.84077230    -0.85550
O2009       O  0.85576013  0.58598136  0.92665823    -0.80410
O2010       O  0.88620542  0.63021879  0.76391472    -0.82180
O2011       O  0.88240833  0.51352806  0.84251045    -0.84930
C2012       C  0.88657274  0.61294984  0.93656099     0.95840
C2013       C  0.82159948  0.60851954  0.86152692     1.03280
O2014       O  0.88046104  0.58195815  0.83805957    -1.13910
O2015       O  0.85583658  0.54072913  0.75869765    -0.76340
O2016       O  0.81336456  0.51408827  0.81241079    -0.79830
O2017       O  0.91018107  0.63276833  0.90605473    -0.80520
C2018       C  0.82480618  0.51731561  0.76988822     0.94740
O2019       O  0.85472991  0.52298988  0.90235145    -0.78470
O2020       O  0.91807995  0.60377726  0.75277818    -0.83670
C2021       C  0.96867775  0.62297761  0.81782953     0.97360
C2022       C  0.89847638  0.61540135  0.73645870     1.03280
O2023       O  0.95217136  0.64110883  0.81974842    -0.79310
C2024       C  0.86533756  0.50390229  0.88240133     1.01580
Fe2025     Fe  0.67494486  0.95390335  0.61924726     1.65780
Fe2026     Fe  0.60922987  0.94430968  0.54800152     1.73250
Fe2027     Fe  0.61006997  0.87193888  0.58641630     1.54410
O2028       O  0.65669138  0.87094148  0.60954351    -0.83050
O2029       O  0.55813432  0.91634229  0.57671531    -0.81350
O2030       O  0.69661626  0.92587297  0.59095178    -0.85550
O2031       O  0.65462843  0.91960539  0.67682214    -0.80410
O2032       O  0.62412633  0.87522828  0.51416512    -0.82180
O2033       O  0.62787921  0.99196922  0.59260322    -0.84930
C2034       C  0.62382782  0.89262838  0.68675257     0.95840
C2035       C  0.68873600  0.89693426  0.61171715     1.03280
O2036       O  0.62991319  0.92356118  0.58818260    -1.13910
O2037       O  0.65441298  0.96488055  0.50873797    -0.76340
O2038       O  0.69700385  0.99132393  0.56238717    -0.79830
O2039       O  0.60020293  0.87280482  0.65627090    -0.80520
C2040       C  0.68551452  0.98815959  0.51989440     0.94740
O2041       O  0.65571227  0.98260961  0.65235267    -0.78470
O2042       O  0.59225546  0.90167373  0.00298437    -0.83670
C2043       C  0.54166928  0.88251984  0.56811884     0.97370
C2044       C  0.61187806  0.89005569  0.98669264     1.03280
O2045       O  0.55818330  0.86439764  0.57001092    -0.79310
C2046       C  0.64502807  0.00164671  0.63242948     1.01580
Fe2047     Fe  0.55398072  0.72107191  0.78571197     1.65780
Fe2048     Fe  0.56358062  0.66478112  0.71475110     1.73250
Fe2049     Fe  0.63593919  0.73833518  0.75289849     1.54410
O2050       O  0.63686016  0.78593716  0.77607742    -0.83050
O2051       O  0.59181382  0.64202148  0.74359231    -0.81350
O2052       O  0.58194981  0.77076476  0.75737693    -0.85550
O2053       O  0.58826757  0.73506183  0.84334958    -0.80410
O2054       O  0.63250436  0.74892019  0.68062076    -0.82180
O2055       O  0.51597330  0.63572717  0.75941227    -0.84930
C2056       C  0.61528215  0.73132118  0.85328889     0.95840
C2057       C  0.61081609  0.79188285  0.77822711     1.03280
O2058       O  0.58430946  0.70641336  0.75467652    -1.13910
O2059       O  0.54257404  0.68879624  0.67525885    -0.76340
O2060       O  0.51669845  0.70578041  0.72874352    -0.79830
O2061       O  0.63516219  0.72765037  0.82278757    -0.80520
C2062       C  0.51970160  0.69719449  0.68632280     0.94740
O2063       O  0.52523572  0.67313365  0.81885796    -0.78470
O2064       O  0.60610491  0.69053068  0.66956342    -0.83670
C2065       C  0.62559466  0.65946426  0.73470336     0.97360
C2066       C  0.61769141  0.72176941  0.65321743     1.03280
O2067       O  0.64365021  0.69412083  0.73645015    -0.79310
C2068       C  0.50620903  0.64334738  0.79904396     1.01580
Fe2069     Fe  0.95633385  0.78435236  0.53572466     1.65680
Fe2070     Fe  0.94677600  0.84091721  0.96512654     1.73250
Fe2071     Fe  0.87440859  0.76719875  0.50306587     1.54410
O2072       O  0.87343755  0.71956721  0.52618387    -0.83050
O2073       O  0.91839220  0.86346869  0.99408248    -0.81350
O2074       O  0.92829077  0.73470413  0.50731320    -0.85550
O2075       O  0.92210062  0.77039252  0.59344869    -0.80410
O2076       O  0.87789065  0.75671295  0.93079612    -0.82180
O2077       O  0.99428870  0.86993317  0.50991325    -0.84930
C2078       C  0.89508559  0.77412329  0.60344271     0.95840
C2079       C  0.89945725  0.71358888  0.52821224     1.03280
O2080       O  0.92605290  0.79912286  0.50481761    -1.13910
O2081       O  0.96812094  0.81736385  0.92543306    -0.76340
O2082       O  0.99349374  0.79955549  0.97866260    -0.79830
O2083       O  0.87520047  0.77782663  0.57297631    -0.80520
C2084       C  0.99065474  0.80845840  0.93635011     0.94740
O2085       O  0.98522711  0.83223343  0.56893734    -0.78470
O2086       O  0.90434205  0.81513877  0.91976810    -0.83670
C2087       C  0.88464784  0.84601434  0.98501550     0.97370
C2088       C  0.89274486  0.78388541  0.90342253     1.03280
O2089       O  0.86664094  0.81136180  0.98663968    -0.79310
C2090       C  0.00413912  0.86214082  0.54934607     1.01580
Fe2091     Fe  0.72365036  0.67240491  0.70262727     1.65780
Fe2092     Fe  0.66748950  0.60654366  0.63148986     1.73250
Fe2093     Fe  0.74093120  0.60773672  0.66973199     1.54420
O2094       O  0.78851111  0.65445395  0.69288315    -0.83050
O2095       O  0.64458316  0.55543349  0.66014634    -0.81350
O2096       O  0.77337664  0.69424306  0.67432214    -0.85550
O2097       O  0.73769471  0.65214426  0.76020934    -0.80410
O2098       O  0.75156940  0.62178563  0.59745482    -0.82180
O2099       O  0.63842808  0.62508540  0.67613960    -0.84930
C2100       C  0.73393351  0.62137744  0.77012504     0.95840
C2101       C  0.79448803  0.68645505  0.69508926     1.03280
O2102       O  0.70902145  0.62739928  0.67155546    -1.13910
O2103       O  0.69186990  0.65168884  0.59216701    -0.76340
O2104       O  0.70823651  0.69437658  0.64573130    -0.79830
O2105       O  0.73022798  0.59781632  0.73961522    -0.80520
C2106       C  0.69984273  0.68283388  0.60326211     0.94740
O2107       O  0.67570688  0.65305308  0.73578014    -0.78470
O2108       O  0.69319412  0.58974192  0.58635490    -0.83670
C2109       C  0.66206038  0.53912640  0.65136631     0.97360
C2110       C  0.72443577  0.60940036  0.57002124     1.03280
O2111       O  0.69671437  0.55577356  0.65326113    -0.79310
C2112       C  0.64596889  0.64234835  0.71587653     1.01580
loop_ 
_geom_bond_atom_site_label_1 
_geom_bond_atom_site_label_2 
_geom_bond_distance 
_geom_bond_site_symmetry_2 
_ccdc_geom_bond_type 
Fe1          O17   2.026       .  S
Fe1           O7   2.074       .  S
Fe1          O14   2.134       .  S
Fe1           O6   2.021       .  S
Fe1          O12   1.922       .  S
Fe2           O5   2.070       .  S
Fe2           O9   2.189       .  S
Fe2          O13   2.018       .  S
Fe2          O18   2.042       .  S
Fe2          O12   1.916       .  S
Fe3          O21   2.139       .  S
Fe3           O8   2.118       .  S
Fe3          O15   2.026       .  S
Fe3           O4   2.130       .  S
Fe3          O12   1.938       .  S
O4           C11   1.269       .  A
O5           C19   1.283       .  A
O6           C11   1.259       .  A
O7           C10   1.280       .  A
O8           C20   1.274       .  A
O9           C22   1.296       .  A
C10          O15   1.279       .  A
C10         C186   1.434       .  S
C11         C209   1.488       .  S
O13          C16   1.244       .  A
O14          C16   1.281       .  A
C16        C1292   1.448   1_455  S
O17          C22   1.255       .  A
O18          C20   1.262       .  A
C19          O21   1.292       .  A
C19         C682   1.496       .  S
C20         C196   1.461       .  S
C22        C1097   1.496   1_455  S
Fe23         O39   2.025       .  S
Fe23         O29   2.076       .  S
Fe23         O36   2.132       .  S
Fe23         O28   2.020       .  S
Fe23         O34   1.922       .  S
Fe24         O27   2.071       .  S
Fe24         O31   2.188       .  S
Fe24         O35   2.015       .  S
Fe24         O40   2.043       .  S
Fe24         O34   1.917       .  S
Fe25         O43   2.137       .  S
Fe25         O30   2.116       .  S
Fe25         O37   2.028       .  S
Fe25         O26   2.130       .  S
Fe25         O34   1.939       .  S
O26          C33   1.268       .  A
O27          C41   1.282       .  A
O28          C33   1.259       .  A
O29          C32   1.281       .  A
O30          C42   1.275       .  A
O31          C44   1.296       .  A
C32          O37   1.279       .  A
C32         C230   1.435       .  S
C33         C253   1.487       .  S
O35          C38   1.245       .  A
O36          C38   1.281       .  A
C38          C82   1.448       .  S
O39          C44   1.255       .  A
O40          C42   1.263       .  A
C41          O43   1.291       .  A
C41        C1078   1.496       .  S
C42         C240   1.460       .  S
C44          C63   1.496       .  S
Fe45         O61   2.026       .  S
Fe45         O51   2.076       .  S
Fe45         O58   2.131       .  S
Fe45         O50   2.020       .  S
Fe45         O56   1.921       .  S
Fe46         O49   2.070       .  S
Fe46         O53   2.187       .  S
Fe46         O57   2.015       .  S
Fe46         O62   2.044       .  S
Fe46         O56   1.918       .  S
Fe47         O65   2.137       .  S
Fe47         O52   2.116       .  S
Fe47         O59   2.027       .  S
Fe47         O48   2.130       .  S
Fe47         O56   1.940       .  S
O48          C55   1.268       .  A
O49          C63   1.282       .  A
O50          C55   1.258       .  A
O51          C54   1.281       .  A
O52          C64   1.275       .  A
O53          C66   1.296       .  A
C54          O59   1.279       .  A
C54          C76   1.435       .  S
C55         C187   1.487       .  S
O57          C60   1.245       .  A
O58          C60   1.281       .  A
C60         C698   1.448       .  S
O61          C66   1.255       .  A
O62          C64   1.264       .  A
C63          O65   1.291       .  A
C64          C86   1.460       .  S
C66         C657   1.496       .  S
Fe67         O83   2.025       .  S
Fe67         O80   2.133       .  S
Fe67         O72   2.020       .  S
Fe67        O337   2.075       .  S
Fe67         O78   1.922       .  S
Fe68         O71   2.071       .  S
Fe68         O75   2.188       .  S
Fe68         O79   2.016       .  S
Fe68         O84   2.043       .  S
Fe68         O78   1.917       .  S
Fe69         O87   2.137       .  S
Fe69         O74   2.117       .  S
Fe69         O70   2.129       .  S
Fe69        O345   2.027       .  S
Fe69         O78   1.939       .  S
O70          C77   1.268       .  A
O71          C85   1.282       .  A
O72          C77   1.259       .  A
O73        Fe331   2.075   1_554  S
O73          C76   1.281       .  A
O74          C86   1.275       .  A
O75          C88   1.296       .  A
C76          O81   1.279   1_554  A
C77          C99   1.487       .  S
O79          C82   1.245       .  A
O80          C82   1.281       .  A
O81        Fe333   2.027       .  S
O83          C88   1.255       .  A
O84          C86   1.263       .  A
C85          O87   1.291       .  A
C85         C704   1.496       .  S
C88         C239   1.496       .  S
Fe89        O105   2.026       .  S
Fe89         O95   2.075       .  S
Fe89         O94   2.020       .  S
Fe89        O366   2.132       .  S
Fe89        O364   1.922       .  S
Fe90         O93   2.071       .  S
Fe90         O97   2.188   1_554  S
Fe90        O101   2.016       .  S
Fe90        O106   2.044       .  S
Fe90        O100   1.917       .  S
Fe91        O103   2.027       .  S
Fe91         O92   2.129       .  S
Fe91        O373   2.137       .  S
Fe91        O360   2.116       .  S
Fe91        O364   1.939       .  S
O92          C99   1.268       .  A
O93         C107   1.282       .  A
O94          C99   1.259       .  A
O95          C98   1.281       .  A
O96        Fe355   2.116       .  S
O96         C108   1.275       .  A
O97         C374   1.296       .  A
C98         O103   1.279       .  A
C98         C208   1.435       .  S
O100       Fe353   1.922   1_554  S
O100       Fe355   1.939       .  S
O101        C104   1.245       .  A
O102       Fe353   2.132   1_554  S
O102        C104   1.281       .  A
C104        C258   1.448       .  S
O105        C110   1.255       .  A
O106        C108   1.263       .  A
C107        O109   1.291       .  A
C107       C1188   1.496       .  S
C108        C218   1.460       .  S
O109       Fe355   2.137       .  S
C110        O361   1.296       .  A
C110        C151   1.496       .  S
Fe111       O127   2.026       .  S
Fe111       O116   2.021       .  S
Fe111       O381   2.074   1_554  S
Fe111      O1180   2.133       .  S
Fe111       O122   1.922       .  S
Fe112       O115   2.070       .  S
Fe112       O119   2.188       .  S
Fe112       O123   2.017       .  S
Fe112       O128   2.043       .  S
Fe112       O122   1.917       .  S
Fe113       O131   2.138       .  S
Fe113       O118   2.117       .  S
Fe113       O125   2.026       .  S
Fe113       O114   2.129       .  S
Fe113       O122   1.938       .  S
O114        C121   1.269       .  A
O115        C129   1.282       .  A
O116        C121   1.259       .  A
O117       Fe375   2.074       .  S
O117        C120   1.280       .  A
O118        C130   1.274       .  A
O119        C132   1.296       .  A
C120        O389   1.279       .  A
C120        C164   1.434       .  S
C121        C231   1.488       .  S
O123        C126   1.244       .  A
O124      Fe1167   2.133       .  S
O124       C1182   1.281       .  A
O125        C384   1.279   1_554  A
C126       O1180   1.281       .  A
C126       C1270   1.448       .  S
O127        C132   1.255       .  A
O128        C130   1.263       .  A
C129        O131   1.291       .  A
C129        C594   1.496       .  S
C130        C174   1.461       .  S
C132       C1163   1.496       .  S
Fe133       O149   2.026       .  S
Fe133       O139   2.075       .  S
Fe133       O146   2.132       .  S
Fe133       O138   2.020       .  S
Fe133       O144   1.921       .  S
Fe134       O137   2.070       .  S
Fe134       O141   2.188       .  S
Fe134       O145   2.016       .  S
Fe134       O414   2.043       .  S
Fe134       O144   1.917       .  S
Fe135       O153   2.138       .  S
Fe135       O140   2.116       .  S
Fe135       O147   2.026       .  S
Fe135       O136   2.130       .  S
Fe135       O144   1.940       .  S
O136        C143   1.268       .  A
O137        C151   1.282       .  A
O138        C143   1.259       .  A
O139        C142   1.281       .  A
O140        C416   1.275       .  A
O141        C154   1.296       .  A
C142        O147   1.279       .  A
C142        C252   1.434       .  S
C143        C165   1.488       .  S
O145        C148   1.245       .  A
O146        C148   1.281       .  A
C148        C984   1.448   1_545  S
O149        C154   1.255       .  A
O150       Fe398   2.043   1_554  S
O150        C152   1.263       .  A
C151        O153   1.291       .  A
C152        O404   1.275   1_554  A
C152        C262   1.460       .  S
C154        C547   1.496   1_545  S
Fe155       O171   2.026       .  S
Fe155       O161   2.074       .  S
Fe155       O168   2.133       .  S
Fe155       O160   2.021       .  S
Fe155       O166   1.922       .  S
Fe156       O159   2.070       .  S
Fe156       O163   2.189       .  S
Fe156       O167   2.017       .  S
Fe156       O172   2.043       .  S
Fe156       O166   1.916       .  S
Fe157       O175   2.138       .  S
Fe157       O162   2.117       .  S
Fe157       O169   2.026       .  S
Fe157       O158   2.129       .  S
Fe157       O166   1.939       .  S
O158        C165   1.268       .  A
O159        C173   1.282       .  A
O160        C165   1.259       .  A
O161        C164   1.280       .  A
O162        C174   1.274       .  A
O163        C176   1.296       .  A
C164        O169   1.279       .  A
O167        C170   1.244       .  A
O168        C170   1.281       .  A
C170        C588   1.448   1_545  S
O171        C176   1.255       .  A
O172        C174   1.263       .  A
C173        O175   1.291       .  A
C173       C1276   1.496       .  S
C176        C613   1.496   1_545  S
Fe177       O193   2.026       .  S
Fe177       O183   2.074       .  S
Fe177       O190   2.133       .  S
Fe177       O182   2.021       .  S
Fe177       O188   1.922       .  S
Fe178       O181   2.070       .  S
Fe178       O185   2.188       .  S
Fe178       O189   2.017       .  S
Fe178       O458   2.044       .  S
Fe178       O188   1.916       .  S
Fe179       O197   2.138       .  S
Fe179       O184   2.117       .  S
Fe179       O191   2.026       .  S
Fe179       O180   2.129       .  S
Fe179       O188   1.939       .  S
O180        C187   1.268       .  A
O181        C195   1.282       .  A
O182        C187   1.259       .  A
O183        C186   1.280       .  A
O184        C460   1.274   1_554  A
O185        C198   1.296       .  A
C186        O191   1.279       .  A
O189        C192   1.245       .  A
O190        C192   1.281       .  A
C192        C940   1.448   1_554  S
O193        C198   1.255       .  A
O194       Fe442   2.044       .  S
O194        C196   1.263       .  A
C195        O197   1.291       .  A
C195       C1298   1.496       .  S
C196        O448   1.274       .  A
C198        C789   1.496       .  S
Fe199       O215   2.026       .  S
Fe199       O205   2.075       .  S
Fe199       O212   2.132       .  S
Fe199       O204   2.020       .  S
Fe199       O210   1.921       .  S
Fe200       O203   2.070       .  S
Fe200       O207   2.188       .  S
Fe200       O211   2.016       .  S
Fe200       O216   2.043       .  S
Fe200       O210   1.918       .  S
Fe201       O219   2.138       .  S
Fe201       O206   2.116       .  S
Fe201       O213   2.027       .  S
Fe201       O202   2.130       .  S
Fe201       O210   1.940       .  S
O202        C209   1.268       .  A
O203        C217   1.282       .  A
O204        C209   1.259       .  A
O205        C208   1.281       .  A
O206        C218   1.275       .  A
O207        C220   1.296       .  A
C208        O213   1.279       .  A
O211        C214   1.245       .  A
O212        C214   1.281       .  A
C214       C1182   1.448   1_455  S
O215        C220   1.255       .  A
O216        C218   1.263       .  A
C217        O219   1.291       .  A
C217        C264   1.496       .  S
C220       C1229   1.496   1_455  S
Fe221       O237   2.026       .  S
Fe221       O227   2.076       .  S
Fe221       O226   2.020       .  S
Fe221       O498   2.131   1_554  S
Fe221       O232   1.921       .  S
Fe222       O225   2.070       .  S
Fe222       O233   2.015       .  S
Fe222       O238   2.044       .  S
Fe222       O493   2.187       .  S
Fe222       O496   1.918       .  S
Fe223       O235   2.027       .  S
Fe223       O224   2.130       .  S
Fe223       O505   2.137   1_554  S
Fe223       O492   2.116   1_554  S
Fe223       O232   1.940       .  S
O224        C231   1.268       .  A
O225        C239   1.282       .  A
O226        C231   1.258       .  A
O227        C230   1.281       .  A
O228       Fe487   2.116       .  S
O228        C240   1.275       .  A
O229       Fe486   2.187   1_554  S
O229        C242   1.296       .  A
C230        O235   1.279       .  A
O232       Fe486   1.918   1_554  S
O233        C236   1.246       .  A
O234       Fe485   2.131       .  S
O234        C236   1.281       .  A
C236       C1072   1.448       .  S
O237        C242   1.255       .  A
O238        C240   1.264       .  A
C239        O241   1.291       .  A
O241       Fe487   2.137       .  S
C242       C1251   1.496       .  S
Fe243       O259   2.026       .  S
Fe243       O249   2.075       .  S
Fe243       O256   2.133       .  S
Fe243       O248   2.021       .  S
Fe243       O254   1.922       .  S
Fe244       O247   2.071       .  S
Fe244       O251   2.188       .  S
Fe244       O255   2.017       .  S
Fe244       O260   2.043       .  S
Fe244       O254   1.917       .  S
Fe245       O263   2.138       .  S
Fe245       O250   2.117       .  S
Fe245       O257   2.027       .  S
Fe245       O246   2.129       .  S
Fe245       O254   1.939       .  S
O246        C253   1.268       .  A
O247        C261   1.283       .  A
O248        C253   1.259       .  A
O249        C252   1.281       .  A
O250        C262   1.275       .  A
O251        C264   1.296       .  A
C252        O257   1.279       .  A
O255        C258   1.245       .  A
O256        C258   1.281       .  A
O259        C264   1.255       .  A
O260        C262   1.263       .  A
C261        O263   1.291       .  A
C261        C726   1.496       .  S
Fe265       O281   2.026       .  S
Fe265       O271   2.074       .  S
Fe265       O278   2.134       .  S
Fe265       O270   2.021       .  S
Fe265       O276   1.922       .  S
Fe266       O269   2.070       .  S
Fe266       O273   2.189       .  S
Fe266       O277   2.018       .  S
Fe266       O282   2.042       .  S
Fe266       O276   1.916       .  S
Fe267       O285   2.139       .  S
Fe267       O272   2.118       .  S
Fe267       O279   2.026       .  S
Fe267       O268   2.130       .  S
Fe267       O276   1.938       .  S
O268        C275   1.269       .  A
O269        C283   1.283       .  A
O270        C275   1.259       .  A
O271        C274   1.280       .  A
O272        C284   1.274       .  A
O273        C286   1.296       .  A
C274        O279   1.279       .  A
C274        C450   1.434       .  S
C275        C473   1.488       .  S
O277        C280   1.244       .  A
O278        C280   1.281       .  A
C280       C1556   1.448   1_455  S
O281        C286   1.255       .  A
O282        C284   1.262       .  A
C283        O285   1.292       .  A
C283        C946   1.496       .  S
C284        C460   1.461       .  S
C286       C1361   1.496   1_455  S
Fe287       O303   2.025       .  S
Fe287       O293   2.076       .  S
Fe287       O300   2.132       .  S
Fe287       O292   2.020       .  S
Fe287       O298   1.922       .  S
Fe288       O291   2.071       .  S
Fe288       O295   2.188       .  S
Fe288       O299   2.015       .  S
Fe288       O304   2.043       .  S
Fe288       O298   1.917       .  S
Fe289       O307   2.137       .  S
Fe289       O294   2.116       .  S
Fe289       O301   2.028       .  S
Fe289       O290   2.130       .  S
Fe289       O298   1.939       .  S
O290        C297   1.268       .  A
O291        C305   1.282       .  A
O292        C297   1.259       .  A
O293        C296   1.281       .  A
O294        C306   1.275       .  A
O295        C308   1.296       .  A
C296        O301   1.279       .  A
C296        C494   1.435       .  S
C297        C517   1.487       .  S
O299        C302   1.245       .  A
O300        C302   1.281       .  A
C302        C346   1.448       .  S
O303        C308   1.255       .  A
O304        C306   1.263       .  A
C305        O307   1.291       .  A
C305       C1342   1.496       .  S
C306        C504   1.460       .  S
C308        C327   1.496       .  S
Fe309       O325   2.026       .  S
Fe309       O315   2.076       .  S
Fe309       O322   2.131       .  S
Fe309       O314   2.020       .  S
Fe309       O320   1.921       .  S
Fe310       O313   2.070       .  S
Fe310       O317   2.187       .  S
Fe310       O321   2.015       .  S
Fe310       O326   2.044       .  S
Fe310       O320   1.918       .  S
Fe311       O329   2.137       .  S
Fe311       O316   2.116       .  S
Fe311       O323   2.027       .  S
Fe311       O312   2.130       .  S
Fe311       O320   1.940       .  S
O312        C319   1.268       .  A
O313        C327   1.282       .  A
O314        C319   1.258       .  A
O315        C318   1.281       .  A
O316        C328   1.275       .  A
O317        C330   1.296       .  A
C318        O323   1.279       .  A
C318        C340   1.435       .  S
C319        C451   1.487       .  S
O321        C324   1.245       .  A
O322        C324   1.281       .  A
C324        C962   1.448       .  S
O325        C330   1.255       .  A
O326        C328   1.264       .  A
C327        O329   1.291       .  A
C328        C350   1.460       .  S
C330        C921   1.496       .  S
Fe331       O347   2.025       .  S
Fe331       O344   2.133       .  S
Fe331       O336   2.020       .  S
Fe331       O342   1.922       .  S
Fe332       O335   2.071       .  S
Fe332       O339   2.188       .  S
Fe332       O343   2.016       .  S
Fe332       O348   2.043       .  S
Fe332       O342   1.917       .  S
Fe333       O351   2.137       .  S
Fe333       O338   2.117       .  S
Fe333       O334   2.129       .  S
Fe333       O342   1.939       .  S
O334        C341   1.268       .  A
O335        C349   1.282       .  A
O336        C341   1.259       .  A
O337        C340   1.281       .  A
O338        C350   1.275       .  A
O339        C352   1.296       .  A
C340        O345   1.279       .  A
C341        C363   1.487       .  S
O343        C346   1.245       .  A
O344        C346   1.281       .  A
O347        C352   1.255       .  A
O348        C350   1.263       .  A
C349        O351   1.291       .  A
C349        C968   1.496       .  S
C352        C503   1.496       .  S
Fe353       O369   2.026       .  S
Fe353       O359   2.075       .  S
Fe353       O358   2.020       .  S
Fe354       O357   2.071       .  S
Fe354       O361   2.188       .  S
Fe354       O365   2.016       .  S
Fe354       O370   2.044       .  S
Fe354       O364   1.917       .  S
Fe355       O367   2.027   1_554  S
Fe355       O356   2.129   1_554  S
O356        C363   1.268       .  A
O357        C371   1.282       .  A
O358        C363   1.259       .  A
O359        C362   1.281       .  A
O360        C372   1.275       .  A
C362        O367   1.279       .  A
C362        C472   1.435       .  S
O365        C368   1.245       .  A
O366        C368   1.281       .  A
C368        C522   1.448       .  S
O369        C374   1.255       .  A
O370        C372   1.263       .  A
C371        O373   1.291       .  A
C371       C1452   1.496       .  S
C372        C482   1.460       .  S
C374        C415   1.496       .  S
Fe375       O391   2.026       .  S
Fe375      O1444   2.133       .  S
Fe375       O380   2.021       .  S
Fe375       O386   1.922       .  S
Fe376       O379   2.070       .  S
Fe376       O383   2.188       .  S
Fe376       O387   2.017       .  S
Fe376       O392   2.043       .  S
Fe376       O386   1.917       .  S
Fe377       O395   2.138       .  S
Fe377       O382   2.117       .  S
Fe377       O389   2.026       .  S
Fe377       O378   2.129       .  S
Fe377       O386   1.938       .  S
O378        C385   1.269       .  A
O379        C393   1.282       .  A
O380        C385   1.259       .  A
O381        C384   1.280       .  A
O382        C394   1.274       .  A
O383        C396   1.296       .  A
C384        C428   1.434       .  S
C385        C495   1.488       .  S
O387        C390   1.244       .  A
O388      Fe1431   2.133       .  S
O388       C1446   1.281       .  A
C390       O1444   1.281       .  A
C390       C1534   1.448       .  S
O391        C396   1.255       .  A
O392        C394   1.263       .  A
C393        O395   1.291       .  A
C393        C858   1.496       .  S
C394        C438   1.461       .  S
C396       C1427   1.496       .  S
Fe397       O413   2.026       .  S
Fe397       O403   2.075       .  S
Fe397       O410   2.132       .  S
Fe397       O402   2.020       .  S
Fe397       O408   1.921       .  S
Fe398       O401   2.070       .  S
Fe398       O405   2.188       .  S
Fe398       O409   2.016       .  S
Fe398       O408   1.917       .  S
Fe399       O417   2.138       .  S
Fe399       O404   2.116       .  S
Fe399       O411   2.026       .  S
Fe399       O400   2.130       .  S
Fe399       O408   1.940       .  S
O400        C407   1.268       .  A
O401        C415   1.282       .  A
O402        C407   1.259       .  A
O403        C406   1.281       .  A
O405        C418   1.296       .  A
C406        O411   1.279       .  A
C406        C516   1.434       .  S
C407        C429   1.488       .  S
O409        C412   1.245       .  A
O410        C412   1.281       .  A
C412        C720   1.448   1_546  S
O413        C418   1.255       .  A
O414        C416   1.263       .  A
C415        O417   1.291       .  A
C416        C526   1.460       .  S
C418        C811   1.496   1_545  S
Fe419       O435   2.026       .  S
Fe419       O425   2.074       .  S
Fe419       O432   2.133       .  S
Fe419       O424   2.021       .  S
Fe419       O430   1.922       .  S
Fe420       O423   2.070       .  S
Fe420       O427   2.189       .  S
Fe420       O431   2.017       .  S
Fe420       O436   2.043       .  S
Fe420       O430   1.916       .  S
Fe421       O439   2.138       .  S
Fe421       O426   2.117       .  S
Fe421       O433   2.026       .  S
Fe421       O422   2.129       .  S
Fe421       O430   1.939       .  S
O422        C429   1.268       .  A
O423        C437   1.282       .  A
O424        C429   1.259       .  A
O425        C428   1.280       .  A
O426        C438   1.274       .  A
O427        C440   1.296       .  A
C428        O433   1.279       .  A
O431        C434   1.244       .  A
O432        C434   1.281       .  A
C434        C852   1.448   1_545  S
O435        C440   1.255       .  A
O436        C438   1.263       .  A
C437        O439   1.291       .  A
C437       C1540   1.496       .  S
C440        C877   1.496   1_545  S
Fe441       O457   2.026       .  S
Fe441       O447   2.074       .  S
Fe441       O454   2.133       .  S
Fe441       O446   2.021       .  S
Fe441       O452   1.922       .  S
Fe442       O445   2.070       .  S
Fe442       O449   2.188       .  S
Fe442       O453   2.017       .  S
Fe442       O452   1.916       .  S
Fe443       O461   2.138       .  S
Fe443       O448   2.117       .  S
Fe443       O455   2.026       .  S
Fe443       O444   2.129       .  S
Fe443       O452   1.939       .  S
O444        C451   1.268       .  A
O445        C459   1.282       .  A
O446        C451   1.259       .  A
O447        C450   1.280       .  A
O449        C462   1.296       .  A
C450        O455   1.279       .  A
O453        C456   1.245       .  A
O454        C456   1.281       .  A
C456        C676   1.448       .  S
O457        C462   1.255       .  A
O458        C460   1.263   1_554  A
C459        O461   1.291       .  A
C459       C1562   1.496       .  S
C462       C1053   1.496       .  S
Fe463       O479   2.026       .  S
Fe463       O469   2.075       .  S
Fe463       O476   2.132       .  S
Fe463       O468   2.020       .  S
Fe463       O474   1.921       .  S
Fe464       O467   2.070       .  S
Fe464       O471   2.188       .  S
Fe464       O475   2.016       .  S
Fe464       O480   2.043       .  S
Fe464       O474   1.918       .  S
Fe465       O483   2.138       .  S
Fe465       O470   2.116       .  S
Fe465       O477   2.027       .  S
Fe465       O466   2.130       .  S
Fe465       O474   1.940       .  S
O466        C473   1.268       .  A
O467        C481   1.282       .  A
O468        C473   1.259       .  A
O469        C472   1.281       .  A
O470        C482   1.275       .  A
O471        C484   1.296       .  A
C472        O477   1.279       .  A
O475        C478   1.245       .  A
O476        C478   1.281       .  A
C478       C1446   1.448   1_455  S
O479        C484   1.255       .  A
O480        C482   1.263       .  A
C481        O483   1.291       .  A
C481        C528   1.496       .  S
C484       C1493   1.496   1_455  S
Fe485       O501   2.026       .  S
Fe485       O491   2.076       .  S
Fe485       O490   2.020       .  S
Fe485       O496   1.921       .  S
Fe486       O489   2.070       .  S
Fe486       O497   2.015       .  S
Fe486       O502   2.044       .  S
Fe487       O499   2.027       .  S
Fe487       O488   2.130       .  S
Fe487       O496   1.940       .  S
O488        C495   1.268       .  A
O489        C503   1.282       .  A
O490        C495   1.258       .  A
O491        C494   1.281       .  A
O492        C504   1.275       .  A
O493        C506   1.296       .  A
C494        O499   1.279       .  A
O497        C500   1.246       .  A
O498        C500   1.281       .  A
C500       C1336   1.448       .  S
O501        C506   1.255       .  A
O502        C504   1.264       .  A
C503        O505   1.291       .  A
C506       C1515   1.496       .  S
Fe507       O523   2.026       .  S
Fe507       O513   2.075       .  S
Fe507       O520   2.133       .  S
Fe507       O512   2.021       .  S
Fe507       O518   1.922       .  S
Fe508       O511   2.071       .  S
Fe508       O515   2.188       .  S
Fe508       O519   2.017       .  S
Fe508       O524   2.043       .  S
Fe508       O518   1.917       .  S
Fe509       O527   2.138       .  S
Fe509       O514   2.117       .  S
Fe509       O521   2.027       .  S
Fe509       O510   2.129       .  S
Fe509       O518   1.939       .  S
O510        C517   1.268       .  A
O511        C525   1.283       .  A
O512        C517   1.259       .  A
O513        C516   1.281       .  A
O514        C526   1.275       .  A
O515        C528   1.296       .  A
C516        O521   1.279       .  A
O519        C522   1.245       .  A
O520        C522   1.281       .  A
O523        C528   1.255       .  A
O524        C526   1.263       .  A
C525        O527   1.291       .  A
C525        C990   1.496       .  S
Fe529       O545   2.026       .  S
Fe529       O535   2.074       .  S
Fe529       O542   2.134       .  S
Fe529       O534   2.021       .  S
Fe529       O540   1.922       .  S
Fe530       O533   2.070       .  S
Fe530       O537   2.189       .  S
Fe530       O541   2.018       .  S
Fe530       O546   2.042       .  S
Fe530       O540   1.916       .  S
Fe531       O549   2.139       .  S
Fe531       O536   2.118       .  S
Fe531       O543   2.026       .  S
Fe531       O532   2.130       .  S
Fe531       O540   1.938       .  S
O532        C539   1.269       .  A
O533        C547   1.283       .  A
O534        C539   1.259       .  A
O535        C538   1.280       .  A
O536        C548   1.274       .  A
O537        C550   1.296       .  A
C538        O543   1.279       .  A
C538        C714   1.434       .  S
C539        C737   1.488       .  S
O541        C544   1.244       .  A
O542        C544   1.281       .  A
C544       C1820   1.448   1_455  S
O545        C550   1.255       .  A
O546        C548   1.262       .  A
C547        O549   1.292       .  A
C548        C724   1.461       .  S
C550       C1625   1.496   1_455  S
Fe551       O567   2.025       .  S
Fe551       O557   2.076       .  S
Fe551       O564   2.132       .  S
Fe551       O556   2.020       .  S
Fe551       O562   1.922       .  S
Fe552       O555   2.071       .  S
Fe552       O559   2.188       .  S
Fe552       O563   2.015       .  S
Fe552       O568   2.043       .  S
Fe552       O562   1.917       .  S
Fe553       O571   2.137       .  S
Fe553       O558   2.116       .  S
Fe553       O565   2.028       .  S
Fe553       O554   2.130       .  S
Fe553       O562   1.939       .  S
O554        C561   1.268       .  A
O555        C569   1.282       .  A
O556        C561   1.259       .  A
O557        C560   1.281       .  A
O558        C570   1.275       .  A
O559        C572   1.296       .  A
C560        O565   1.279       .  A
C560        C758   1.435       .  S
C561        C781   1.487       .  S
O563        C566   1.245       .  A
O564        C566   1.281       .  A
C566        C610   1.448       .  S
O567        C572   1.255       .  A
O568        C570   1.263       .  A
C569        O571   1.291       .  A
C569       C1606   1.496       .  S
C570        C768   1.460       .  S
C572        C591   1.496       .  S
Fe573       O589   2.026       .  S
Fe573       O579   2.076       .  S
Fe573       O586   2.131       .  S
Fe573       O578   2.020       .  S
Fe573       O584   1.921       .  S
Fe574       O577   2.070       .  S
Fe574       O581   2.187       .  S
Fe574       O585   2.015       .  S
Fe574       O590   2.044       .  S
Fe574       O584   1.918       .  S
Fe575       O593   2.137       .  S
Fe575       O580   2.116       .  S
Fe575       O587   2.027       .  S
Fe575       O576   2.130       .  S
Fe575       O584   1.940       .  S
O576        C583   1.268       .  A
O577        C591   1.282       .  A
O578        C583   1.258       .  A
O579        C582   1.281       .  A
O580        C592   1.275       .  A
O581        C594   1.296   1_565  A
C582        O587   1.279       .  A
C582        C604   1.435       .  S
C583        C715   1.487       .  S
O585        C588   1.245       .  A
O586        C588   1.281       .  A
O589        C594   1.255   1_565  A
O590        C592   1.264       .  A
C591        O593   1.291       .  A
C592        C614   1.460       .  S
Fe595       O611   2.025       .  S
Fe595       O865   2.075       .  S
Fe595       O608   2.133       .  S
Fe595       O600   2.020       .  S
Fe595       O606   1.922       .  S
Fe596       O599   2.071       .  S
Fe596       O603   2.188       .  S
Fe596       O607   2.016       .  S
Fe596       O612   2.043       .  S
Fe596       O606   1.917       .  S
Fe597       O615   2.137       .  S
Fe597       O602   2.117       .  S
Fe597       O873   2.027       .  S
Fe597       O598   2.129       .  S
Fe597       O606   1.939       .  S
O598        C605   1.268       .  A
O599        C613   1.282       .  A
O600        C605   1.259       .  A
O601       Fe859   2.075   1_554  S
O601        C604   1.281       .  A
O602        C614   1.275       .  A
O603        C616   1.296       .  A
C604        O609   1.279   1_554  A
C605        C627   1.487       .  S
O607        C610   1.245       .  A
O608        C610   1.281       .  A
O609       Fe861   2.027       .  S
O611        C616   1.255       .  A
O612        C614   1.263       .  A
C613        O615   1.291       .  A
C616        C767   1.496       .  S
Fe617       O633   2.026       .  S
Fe617       O623   2.075       .  S
Fe617       O894   2.132       .  S
Fe617       O622   2.020       .  S
Fe617       O892   1.922       .  S
Fe618       O621   2.071       .  S
Fe618       O625   2.188   1_554  S
Fe618       O629   2.016       .  S
Fe618       O634   2.044       .  S
Fe618       O628   1.917       .  S
Fe619       O901   2.137       .  S
Fe619       O888   2.116       .  S
Fe619       O631   2.027       .  S
Fe619       O620   2.129       .  S
Fe619       O892   1.939       .  S
O620        C627   1.268       .  A
O621        C635   1.282       .  A
O622        C627   1.259       .  A
O623        C626   1.281       .  A
O624       Fe883   2.116       .  S
O624        C636   1.275       .  A
O625        C902   1.296       .  A
C626        O631   1.279       .  A
C626        C736   1.435       .  S
O628       Fe881   1.922   1_554  S
O628       Fe883   1.939       .  S
O629        C632   1.245       .  A
O630       Fe881   2.132   1_554  S
O630        C632   1.281       .  A
C632        C786   1.448       .  S
O633        C638   1.255       .  A
O634        C636   1.263       .  A
C635        O637   1.291       .  A
C635       C1716   1.496       .  S
C636        C746   1.460       .  S
O637       Fe883   2.137       .  S
C638        O889   1.296       .  A
C638        C679   1.496       .  S
Fe639       O655   2.026       .  S
Fe639       O909   2.074   1_554  S
Fe639      O1708   2.133       .  S
Fe639       O644   2.021       .  S
Fe639       O650   1.922       .  S
Fe640       O643   2.070       .  S
Fe640       O647   2.188       .  S
Fe640       O651   2.017       .  S
Fe640       O656   2.043       .  S
Fe640       O650   1.917       .  S
Fe641       O659   2.138       .  S
Fe641       O646   2.117       .  S
Fe641       O653   2.026       .  S
Fe641       O642   2.129       .  S
Fe641       O650   1.938       .  S
O642        C649   1.269       .  A
O643        C657   1.282       .  A
O644        C649   1.259       .  A
O645       Fe903   2.074       .  S
O645        C648   1.280       .  A
O646        C658   1.274       .  A
O647        C660   1.296       .  A
C648        O917   1.279       .  A
C648        C692   1.434       .  S
C649        C759   1.488       .  S
O651        C654   1.244       .  A
O652      Fe1695   2.133       .  S
O652       C1710   1.281       .  A
O653        C912   1.279   1_554  A
C654       O1708   1.281       .  A
C654       C1798   1.448       .  S
O655        C660   1.255       .  A
O656        C658   1.263       .  A
C657        O659   1.291       .  A
C658        C702   1.461       .  S
C660       C1691   1.496       .  S
Fe661       O677   2.026       .  S
Fe661       O667   2.075       .  S
Fe661       O674   2.132       .  S
Fe661       O666   2.020       .  S
Fe661       O672   1.921       .  S
Fe662       O665   2.070       .  S
Fe662       O669   2.188       .  S
Fe662       O673   2.016       .  S
Fe662       O942   2.043       .  S
Fe662       O672   1.917       .  S
Fe663       O681   2.138       .  S
Fe663       O668   2.116       .  S
Fe663       O675   2.026       .  S
Fe663       O664   2.130       .  S
Fe663       O672   1.940       .  S
O664        C671   1.268       .  A
O665        C679   1.282       .  A
O666        C671   1.259       .  A
O667        C670   1.281       .  A
O668        C944   1.275       .  A
O669        C682   1.296       .  A
C670        O675   1.279       .  A
C670        C780   1.434       .  S
C671        C693   1.488       .  S
O673        C676   1.245       .  A
O674        C676   1.281       .  A
O677        C682   1.255       .  A
O678       Fe926   2.043   1_554  S
O678        C680   1.263       .  A
C679        O681   1.291       .  A
C680        O932   1.275   1_554  A
C680        C790   1.460       .  S
Fe683       O699   2.026       .  S
Fe683       O689   2.074       .  S
Fe683       O696   2.133       .  S
Fe683       O688   2.021       .  S
Fe683       O694   1.922       .  S
Fe684       O687   2.070       .  S
Fe684       O691   2.189       .  S
Fe684       O695   2.017       .  S
Fe684       O700   2.043       .  S
Fe684       O694   1.916       .  S
Fe685       O703   2.138       .  S
Fe685       O690   2.117       .  S
Fe685       O697   2.026       .  S
Fe685       O686   2.129       .  S
Fe685       O694   1.939       .  S
O686        C693   1.268       .  A
O687        C701   1.282       .  A
O688        C693   1.259       .  A
O689        C692   1.280       .  A
O690        C702   1.274       .  A
O691        C704   1.296       .  A
C692        O697   1.279       .  A
O695        C698   1.244       .  A
O696        C698   1.281       .  A
O699        C704   1.255       .  A
O700        C702   1.263       .  A
C701        O703   1.291       .  A
C701       C1804   1.496       .  S
Fe705       O721   2.026       .  S
Fe705       O711   2.074       .  S
Fe705       O718   2.133       .  S
Fe705       O710   2.021       .  S
Fe705       O716   1.922       .  S
Fe706       O709   2.070       .  S
Fe706       O713   2.188       .  S
Fe706       O717   2.017       .  S
Fe706       O986   2.044       .  S
Fe706       O716   1.916       .  S
Fe707       O725   2.138       .  S
Fe707       O712   2.117       .  S
Fe707       O719   2.026       .  S
Fe707       O708   2.129       .  S
Fe707       O716   1.939       .  S
O708        C715   1.268       .  A
O709        C723   1.282       .  A
O710        C715   1.259       .  A
O711        C714   1.280       .  A
O712        C988   1.274   1_554  A
O713        C726   1.296   1_565  A
C714        O719   1.279       .  A
O717        C720   1.245       .  A
O718        C720   1.281       .  A
O721        C726   1.255   1_565  A
O722       Fe970   2.044       .  S
O722        C724   1.263       .  A
C723        O725   1.291       .  A
C723       C1826   1.496       .  S
C724        O976   1.274       .  A
Fe727       O743   2.026       .  S
Fe727       O733   2.075       .  S
Fe727       O740   2.132       .  S
Fe727       O732   2.020       .  S
Fe727       O738   1.921       .  S
Fe728       O731   2.070       .  S
Fe728       O735   2.188       .  S
Fe728       O739   2.016       .  S
Fe728       O744   2.043       .  S
Fe728       O738   1.918       .  S
Fe729       O747   2.138       .  S
Fe729       O734   2.116       .  S
Fe729       O741   2.027       .  S
Fe729       O730   2.130       .  S
Fe729       O738   1.940       .  S
O730        C737   1.268       .  A
O731        C745   1.282       .  A
O732        C737   1.259       .  A
O733        C736   1.281       .  A
O734        C746   1.275       .  A
O735        C748   1.296       .  A
C736        O741   1.279       .  A
O739        C742   1.245       .  A
O740        C742   1.281       .  A
C742       C1710   1.448   1_455  S
O743        C748   1.255       .  A
O744        C746   1.263       .  A
C745        O747   1.291       .  A
C745        C792   1.496       .  S
C748       C1757   1.496   1_455  S
Fe749       O765   2.026       .  S
Fe749       O755   2.076       .  S
Fe749      O1026   2.131   1_554  S
Fe749       O754   2.020       .  S
Fe749       O760   1.921       .  S
Fe750       O753   2.070       .  S
Fe750      O1021   2.187       .  S
Fe750       O761   2.015       .  S
Fe750       O766   2.044       .  S
Fe750      O1024   1.918       .  S
Fe751      O1033   2.137   1_554  S
Fe751      O1020   2.116   1_554  S
Fe751       O763   2.027       .  S
Fe751       O752   2.130       .  S
Fe751       O760   1.940       .  S
O752        C759   1.268       .  A
O753        C767   1.282       .  A
O754        C759   1.258       .  A
O755        C758   1.281       .  A
O756      Fe1015   2.116       .  S
O756        C768   1.275       .  A
O757      Fe1014   2.187   1_554  S
O757        C770   1.296       .  A
C758        O763   1.279       .  A
O760      Fe1014   1.918   1_554  S
O761        C764   1.246       .  A
O762      Fe1013   2.131       .  S
O762        C764   1.281       .  A
C764       C1600   1.448       .  S
O765        C770   1.255       .  A
O766        C768   1.264       .  A
C767        O769   1.291       .  A
O769      Fe1015   2.137       .  S
C770       C1779   1.496       .  S
Fe771       O787   2.026       .  S
Fe771       O777   2.075       .  S
Fe771       O784   2.133       .  S
Fe771       O776   2.021       .  S
Fe771       O782   1.922       .  S
Fe772       O775   2.071       .  S
Fe772       O779   2.188       .  S
Fe772       O783   2.017       .  S
Fe772       O788   2.043       .  S
Fe772       O782   1.917       .  S
Fe773       O791   2.138       .  S
Fe773       O778   2.117       .  S
Fe773       O785   2.027       .  S
Fe773       O774   2.129       .  S
Fe773       O782   1.939       .  S
O774        C781   1.268       .  A
O775        C789   1.283       .  A
O776        C781   1.259       .  A
O777        C780   1.281       .  A
O778        C790   1.275       .  A
O779        C792   1.296       .  A
C780        O785   1.279       .  A
O783        C786   1.245       .  A
O784        C786   1.281       .  A
O787        C792   1.255       .  A
O788        C790   1.263       .  A
C789        O791   1.291       .  A
Fe793       O809   2.026       .  S
Fe793       O799   2.074       .  S
Fe793       O806   2.134       .  S
Fe793       O798   2.021       .  S
Fe793       O804   1.922       .  S
Fe794       O797   2.070       .  S
Fe794       O801   2.189       .  S
Fe794       O805   2.018       .  S
Fe794       O810   2.042       .  S
Fe794       O804   1.916       .  S
Fe795       O813   2.139       .  S
Fe795       O800   2.118       .  S
Fe795       O807   2.026       .  S
Fe795       O796   2.130       .  S
Fe795       O804   1.938       .  S
O796        C803   1.269       .  A
O797        C811   1.283       .  A
O798        C803   1.259       .  A
O799        C802   1.280       .  A
O800        C812   1.274       .  A
O801        C814   1.296       .  A
C802        O807   1.279       .  A
C802        C978   1.434       .  S
C803       C1001   1.488       .  S
O805        C808   1.244       .  A
O806        C808   1.281       .  A
C808       C2084   1.448   1_455  S
O809        C814   1.255       .  A
O810        C812   1.262       .  A
C811        O813   1.292       .  A
C812        C988   1.461       .  S
C814       C1889   1.496   1_455  S
Fe815       O831   2.025       .  S
Fe815       O821   2.076       .  S
Fe815       O828   2.132       .  S
Fe815       O820   2.020       .  S
Fe815       O826   1.922       .  S
Fe816       O819   2.071       .  S
Fe816       O823   2.188       .  S
Fe816       O827   2.015       .  S
Fe816       O832   2.043       .  S
Fe816       O826   1.917       .  S
Fe817       O835   2.137       .  S
Fe817       O822   2.116       .  S
Fe817       O829   2.028       .  S
Fe817       O818   2.130       .  S
Fe817       O826   1.939       .  S
O818        C825   1.268       .  A
O819        C833   1.282       .  A
O820        C825   1.259       .  A
O821        C824   1.281       .  A
O822        C834   1.275       .  A
O823        C836   1.296       .  A
C824        O829   1.279       .  A
C824       C1022   1.435       .  S
C825       C1045   1.487       .  S
O827        C830   1.245       .  A
O828        C830   1.281       .  A
C830        C874   1.448       .  S
O831        C836   1.255       .  A
O832        C834   1.263       .  A
C833        O835   1.291       .  A
C833       C1870   1.496       .  S
C834       C1032   1.460       .  S
C836        C855   1.496       .  S
Fe837       O853   2.026       .  S
Fe837       O843   2.076       .  S
Fe837       O850   2.131       .  S
Fe837       O842   2.020       .  S
Fe837       O848   1.921       .  S
Fe838       O841   2.070       .  S
Fe838       O845   2.187       .  S
Fe838       O849   2.015       .  S
Fe838       O854   2.044       .  S
Fe838       O848   1.918       .  S
Fe839       O857   2.137       .  S
Fe839       O844   2.116       .  S
Fe839       O851   2.027       .  S
Fe839       O840   2.130       .  S
Fe839       O848   1.940       .  S
O840        C847   1.268       .  A
O841        C855   1.282       .  A
O842        C847   1.258       .  A
O843        C846   1.281       .  A
O844        C856   1.275       .  A
O845        C858   1.296   1_565  A
C846        O851   1.279       .  A
C846        C868   1.435       .  S
C847        C979   1.487       .  S
O849        C852   1.245       .  A
O850        C852   1.281       .  A
O853        C858   1.255   1_565  A
O854        C856   1.264       .  A
C855        O857   1.291       .  A
C856        C878   1.460       .  S
Fe859       O875   2.025       .  S
Fe859       O872   2.133       .  S
Fe859       O864   2.020       .  S
Fe859       O870   1.922       .  S
Fe860       O863   2.071       .  S
Fe860       O867   2.188       .  S
Fe860       O871   2.016       .  S
Fe860       O876   2.043       .  S
Fe860       O870   1.917       .  S
Fe861       O879   2.137       .  S
Fe861       O866   2.117       .  S
Fe861       O862   2.129       .  S
Fe861       O870   1.939       .  S
O862        C869   1.268       .  A
O863        C877   1.282       .  A
O864        C869   1.259       .  A
O865        C868   1.281       .  A
O866        C878   1.275       .  A
O867        C880   1.296       .  A
C868        O873   1.279       .  A
C869        C891   1.487       .  S
O871        C874   1.245       .  A
O872        C874   1.281       .  A
O875        C880   1.255       .  A
O876        C878   1.263       .  A
C877        O879   1.291       .  A
C880       C1031   1.496       .  S
Fe881       O897   2.026       .  S
Fe881       O887   2.075       .  S
Fe881       O886   2.020       .  S
Fe882       O885   2.071       .  S
Fe882       O889   2.188       .  S
Fe882       O893   2.016       .  S
Fe882       O898   2.044       .  S
Fe882       O892   1.917       .  S
Fe883       O895   2.027   1_554  S
Fe883       O884   2.129   1_554  S
O884        C891   1.268       .  A
O885        C899   1.282       .  A
O886        C891   1.259       .  A
O887        C890   1.281       .  A
O888        C900   1.275       .  A
C890        O895   1.279       .  A
C890       C1000   1.435       .  S
O893        C896   1.245       .  A
O894        C896   1.281       .  A
C896       C1050   1.448       .  S
O897        C902   1.255       .  A
O898        C900   1.263       .  A
C899        O901   1.291       .  A
C899       C1980   1.496       .  S
C900       C1010   1.460       .  S
C902        C943   1.496       .  S
Fe903       O919   2.026       .  S
Fe903      O1972   2.133       .  S
Fe903       O908   2.021       .  S
Fe903       O914   1.922       .  S
Fe904       O907   2.070       .  S
Fe904       O911   2.188       .  S
Fe904       O915   2.017       .  S
Fe904       O920   2.043       .  S
Fe904       O914   1.917       .  S
Fe905       O923   2.138       .  S
Fe905       O910   2.117       .  S
Fe905       O917   2.026       .  S
Fe905       O906   2.129       .  S
Fe905       O914   1.938       .  S
O906        C913   1.269       .  A
O907        C921   1.282       .  A
O908        C913   1.259       .  A
O909        C912   1.280       .  A
O910        C922   1.274       .  A
O911        C924   1.296       .  A
C912        C956   1.434       .  S
C913       C1023   1.488       .  S
O915        C918   1.244       .  A
O916      Fe1959   2.133       .  S
O916       C1974   1.281       .  A
C918       O1972   1.281       .  A
C918       C2062   1.448       .  S
O919        C924   1.255       .  A
O920        C922   1.263       .  A
C921        O923   1.291       .  A
C922        C966   1.461       .  S
C924       C1955   1.496       .  S
Fe925       O941   2.026       .  S
Fe925       O931   2.075       .  S
Fe925       O938   2.132       .  S
Fe925       O930   2.020       .  S
Fe925       O936   1.921       .  S
Fe926       O929   2.070       .  S
Fe926       O933   2.188       .  S
Fe926       O937   2.016       .  S
Fe926       O936   1.917       .  S
Fe927       O945   2.138       .  S
Fe927       O932   2.116       .  S
Fe927       O939   2.026       .  S
Fe927       O928   2.130       .  S
Fe927       O936   1.940       .  S
O928        C935   1.268       .  A
O929        C943   1.282       .  A
O930        C935   1.259       .  A
O931        C934   1.281       .  A
O933        C946   1.296       .  A
C934        O939   1.279       .  A
C934       C1044   1.434       .  S
C935        C957   1.488       .  S
O937        C940   1.245       .  A
O938        C940   1.281       .  A
O941        C946   1.255       .  A
O942        C944   1.263       .  A
C943        O945   1.291       .  A
C944       C1054   1.460       .  S
Fe947       O963   2.026       .  S
Fe947       O953   2.074       .  S
Fe947       O960   2.133       .  S
Fe947       O952   2.021       .  S
Fe947       O958   1.922       .  S
Fe948       O951   2.070       .  S
Fe948       O955   2.189       .  S
Fe948       O959   2.017       .  S
Fe948       O964   2.043       .  S
Fe948       O958   1.916       .  S
Fe949       O967   2.138       .  S
Fe949       O954   2.117       .  S
Fe949       O961   2.026       .  S
Fe949       O950   2.129       .  S
Fe949       O958   1.939       .  S
O950        C957   1.268       .  A
O951        C965   1.282       .  A
O952        C957   1.259       .  A
O953        C956   1.280       .  A
O954        C966   1.274       .  A
O955        C968   1.296       .  A
C956        O961   1.279       .  A
O959        C962   1.244       .  A
O960        C962   1.281       .  A
O963        C968   1.255       .  A
O964        C966   1.263       .  A
C965        O967   1.291       .  A
C965       C2068   1.496       .  S
Fe969       O985   2.026       .  S
Fe969       O975   2.074       .  S
Fe969       O982   2.133       .  S
Fe969       O974   2.021       .  S
Fe969       O980   1.922       .  S
Fe970       O973   2.070       .  S
Fe970       O977   2.188       .  S
Fe970       O981   2.017       .  S
Fe970       O980   1.916       .  S
Fe971       O989   2.138       .  S
Fe971       O976   2.117       .  S
Fe971       O983   2.026       .  S
Fe971       O972   2.129       .  S
Fe971       O980   1.939       .  S
O972        C979   1.268       .  A
O973        C987   1.282       .  A
O974        C979   1.259       .  A
O975        C978   1.280       .  A
O977        C990   1.296   1_565  A
C978        O983   1.279       .  A
O981        C984   1.245       .  A
O982        C984   1.281       .  A
O985        C990   1.255   1_565  A
O986        C988   1.263   1_554  A
C987        O989   1.291       .  A
C987       C2090   1.496       .  S
Fe991      O1007   2.026       .  S
Fe991       O997   2.075       .  S
Fe991      O1004   2.132       .  S
Fe991       O996   2.020       .  S
Fe991      O1002   1.921       .  S
Fe992       O995   2.070       .  S
Fe992       O999   2.188       .  S
Fe992      O1003   2.016       .  S
Fe992      O1008   2.043       .  S
Fe992      O1002   1.918       .  S
Fe993      O1011   2.138       .  S
Fe993       O998   2.116       .  S
Fe993      O1005   2.027       .  S
Fe993       O994   2.130       .  S
Fe993      O1002   1.940       .  S
O994       C1001   1.268       .  A
O995       C1009   1.282       .  A
O996       C1001   1.259       .  A
O997       C1000   1.281       .  A
O998       C1010   1.275       .  A
O999       C1012   1.296       .  A
C1000      O1005   1.279       .  A
O1003      C1006   1.245       .  A
O1004      C1006   1.281       .  A
C1006      C1974   1.448   1_455  S
O1007      C1012   1.255       .  A
O1008      C1010   1.263       .  A
C1009      O1011   1.291       .  A
C1009      C1056   1.496       .  S
C1012      C2021   1.496   1_455  S
Fe1013     O1029   2.026       .  S
Fe1013     O1019   2.076       .  S
Fe1013     O1018   2.020       .  S
Fe1013     O1024   1.921       .  S
Fe1014     O1017   2.070       .  S
Fe1014     O1025   2.015       .  S
Fe1014     O1030   2.044       .  S
Fe1015     O1027   2.027       .  S
Fe1015     O1016   2.130       .  S
Fe1015     O1024   1.940       .  S
O1016      C1023   1.268       .  A
O1017      C1031   1.282       .  A
O1018      C1023   1.258       .  A
O1019      C1022   1.281       .  A
O1020      C1032   1.275       .  A
O1021      C1034   1.296       .  A
C1022      O1027   1.279       .  A
O1025      C1028   1.246       .  A
O1026      C1028   1.281       .  A
C1028      C1864   1.448       .  S
O1029      C1034   1.255       .  A
O1030      C1032   1.264       .  A
C1031      O1033   1.291       .  A
C1034      C2043   1.496       .  S
Fe1035     O1051   2.026       .  S
Fe1035     O1041   2.075       .  S
Fe1035     O1048   2.133       .  S
Fe1035     O1040   2.021       .  S
Fe1035     O1046   1.922       .  S
Fe1036     O1039   2.071       .  S
Fe1036     O1043   2.188       .  S
Fe1036     O1047   2.017       .  S
Fe1036     O1052   2.043       .  S
Fe1036     O1046   1.917       .  S
Fe1037     O1055   2.138       .  S
Fe1037     O1042   2.117       .  S
Fe1037     O1049   2.027       .  S
Fe1037     O1038   2.129       .  S
Fe1037     O1046   1.939       .  S
O1038      C1045   1.268       .  A
O1039      C1053   1.283       .  A
O1040      C1045   1.259       .  A
O1041      C1044   1.281       .  A
O1042      C1054   1.275       .  A
O1043      C1056   1.296       .  A
C1044      O1049   1.279       .  A
O1047      C1050   1.245       .  A
O1048      C1050   1.281       .  A
O1051      C1056   1.255       .  A
O1052      C1054   1.263       .  A
C1053      O1055   1.291       .  A
Fe1057     O1073   2.026       .  S
Fe1057     O1063   2.074       .  S
Fe1057     O1070   2.134       .  S
Fe1057     O1062   2.021       .  S
Fe1057     O1068   1.922       .  S
Fe1058     O1061   2.070       .  S
Fe1058     O1065   2.189       .  S
Fe1058     O1069   2.018       .  S
Fe1058     O1074   2.042       .  S
Fe1058     O1068   1.916       .  S
Fe1059     O1077   2.139       .  S
Fe1059     O1064   2.118       .  S
Fe1059     O1071   2.026       .  S
Fe1059     O1060   2.130       .  S
Fe1059     O1068   1.938       .  S
O1060      C1067   1.269       .  A
O1061      C1075   1.283       .  A
O1062      C1067   1.259       .  A
O1063      C1066   1.280       .  A
O1064      C1076   1.274       .  A
O1065      C1078   1.296       .  A
C1066      O1071   1.279       .  A
C1066      C1242   1.434       .  S
C1067      C1265   1.488       .  S
O1069      C1072   1.244       .  A
O1070      C1072   1.281       .  A
O1073      C1078   1.255       .  A
O1074      C1076   1.262       .  A
C1075      O1077   1.292       .  A
C1075      C1738   1.496       .  S
C1076      C1252   1.461       .  S
Fe1079     O1095   2.025       .  S
Fe1079     O1085   2.076       .  S
Fe1079     O1092   2.132       .  S
Fe1079     O1084   2.020       .  S
Fe1079     O1090   1.922       .  S
Fe1080     O1083   2.071       .  S
Fe1080     O1087   2.188       .  S
Fe1080     O1091   2.015       .  S
Fe1080     O1096   2.043       .  S
Fe1080     O1090   1.917       .  S
Fe1081     O1099   2.137       .  S
Fe1081     O1086   2.116       .  S
Fe1081     O1093   2.028       .  S
Fe1081     O1082   2.130       .  S
Fe1081     O1090   1.939       .  S
O1082      C1089   1.268       .  A
O1083      C1097   1.282       .  A
O1084      C1089   1.259       .  A
O1085      C1088   1.281       .  A
O1086      C1098   1.275       .  A
O1087      C1100   1.296       .  A
C1088      O1093   1.279       .  A
C1088      C1286   1.435       .  S
C1089      C1309   1.487       .  S
O1091      C1094   1.245       .  A
O1092      C1094   1.281       .  A
C1094      C1138   1.448       .  S
O1095      C1100   1.255       .  A
O1096      C1098   1.263       .  A
C1097      O1099   1.291       .  A
C1098      C1296   1.460       .  S
C1100      C1119   1.496       .  S
Fe1101     O1117   2.026       .  S
Fe1101     O1107   2.076       .  S
Fe1101     O1114   2.131       .  S
Fe1101     O1106   2.020       .  S
Fe1101     O1112   1.921       .  S
Fe1102     O1105   2.070       .  S
Fe1102     O1109   2.187       .  S
Fe1102     O1113   2.015       .  S
Fe1102     O1118   2.044       .  S
Fe1102     O1112   1.918       .  S
Fe1103     O1121   2.137       .  S
Fe1103     O1108   2.116       .  S
Fe1103     O1115   2.027       .  S
Fe1103     O1104   2.130       .  S
Fe1103     O1112   1.940       .  S
O1104      C1111   1.268       .  A
O1105      C1119   1.282       .  A
O1106      C1111   1.258       .  A
O1107      C1110   1.281       .  A
O1108      C1120   1.275       .  A
O1109      C1122   1.296       .  A
C1110      O1115   1.279       .  A
C1110      C1132   1.435       .  S
C1111      C1243   1.487       .  S
O1113      C1116   1.245       .  A
O1114      C1116   1.281       .  A
C1116      C1754   1.448       .  S
O1117      C1122   1.255       .  A
O1118      C1120   1.264       .  A
C1119      O1121   1.291       .  A
C1120      C1142   1.460       .  S
C1122      C1713   1.496       .  S
Fe1123     O1139   2.025       .  S
Fe1123     O1393   2.075       .  S
Fe1123     O1136   2.133       .  S
Fe1123     O1128   2.020       .  S
Fe1123     O1134   1.922       .  S
Fe1124     O1127   2.071       .  S
Fe1124     O1131   2.188       .  S
Fe1124     O1135   2.016       .  S
Fe1124     O1140   2.043       .  S
Fe1124     O1134   1.917       .  S
Fe1125     O1143   2.137       .  S
Fe1125     O1130   2.117       .  S
Fe1125     O1401   2.027       .  S
Fe1125     O1126   2.129       .  S
Fe1125     O1134   1.939       .  S
O1126      C1133   1.268       .  A
O1127      C1141   1.282       .  A
O1128      C1133   1.259       .  A
O1129     Fe1387   2.075   1_554  S
O1129      C1132   1.281       .  A
O1130      C1142   1.275       .  A
O1131      C1144   1.296       .  A
C1132      O1137   1.279   1_554  A
C1133      C1155   1.487       .  S
O1135      C1138   1.245       .  A
O1136      C1138   1.281       .  A
O1137     Fe1389   2.027       .  S
O1139      C1144   1.255       .  A
O1140      C1142   1.263       .  A
C1141      O1143   1.291       .  A
C1141      C1760   1.496       .  S
C1144      C1295   1.496       .  S
Fe1145     O1161   2.026       .  S
Fe1145     O1151   2.075       .  S
Fe1145     O1422   2.132       .  S
Fe1145     O1150   2.020       .  S
Fe1145     O1420   1.922       .  S
Fe1146     O1149   2.071       .  S
Fe1146     O1153   2.188   1_554  S
Fe1146     O1157   2.016       .  S
Fe1146     O1162   2.044       .  S
Fe1146     O1156   1.917       .  S
Fe1147     O1429   2.137       .  S
Fe1147     O1416   2.116       .  S
Fe1147     O1159   2.027       .  S
Fe1147     O1148   2.129       .  S
Fe1147     O1420   1.939       .  S
O1148      C1155   1.268       .  A
O1149      C1163   1.282       .  A
O1150      C1155   1.259       .  A
O1151      C1154   1.281       .  A
O1152     Fe1411   2.116       .  S
O1152      C1164   1.275       .  A
O1153      C1430   1.296       .  A
C1154      O1159   1.279       .  A
C1154      C1264   1.435       .  S
O1156     Fe1409   1.922   1_554  S
O1156     Fe1411   1.939       .  S
O1157      C1160   1.245       .  A
O1158     Fe1409   2.132   1_554  S
O1158      C1160   1.281       .  A
C1160      C1314   1.448       .  S
O1161      C1166   1.255       .  A
O1162      C1164   1.263       .  A
C1163      O1165   1.291       .  A
C1164      C1274   1.460       .  S
O1165     Fe1411   2.137       .  S
C1166      O1417   1.296       .  A
C1166      C1207   1.496       .  S
Fe1167     O1183   2.026       .  S
Fe1167     O1437   2.074   1_554  S
Fe1167     O1172   2.021       .  S
Fe1167     O1178   1.922       .  S
Fe1168     O1171   2.070       .  S
Fe1168     O1175   2.188       .  S
Fe1168     O1179   2.017       .  S
Fe1168     O1184   2.043       .  S
Fe1168     O1178   1.917       .  S
Fe1169     O1187   2.138       .  S
Fe1169     O1174   2.117       .  S
Fe1169     O1181   2.026       .  S
Fe1169     O1170   2.129       .  S
Fe1169     O1178   1.938       .  S
O1170      C1177   1.269       .  A
O1171      C1185   1.282       .  A
O1172      C1177   1.259       .  A
O1173     Fe1431   2.074       .  S
O1173      C1176   1.280       .  A
O1174      C1186   1.274       .  A
O1175      C1188   1.296   1_655  A
C1176      O1445   1.279       .  A
C1176      C1220   1.434       .  S
C1177      C1287   1.488       .  S
O1179      C1182   1.244       .  A
O1181      C1440   1.279   1_554  A
O1183      C1188   1.255   1_655  A
O1184      C1186   1.263       .  A
C1185      O1187   1.291       .  A
C1185      C1650   1.496       .  S
C1186      C1230   1.461       .  S
Fe1189     O1205   2.026       .  S
Fe1189     O1195   2.075       .  S
Fe1189     O1202   2.132       .  S
Fe1189     O1194   2.020       .  S
Fe1189     O1200   1.921       .  S
Fe1190     O1193   2.070       .  S
Fe1190     O1197   2.188       .  S
Fe1190     O1201   2.016       .  S
Fe1190     O1470   2.043       .  S
Fe1190     O1200   1.917       .  S
Fe1191     O1209   2.138       .  S
Fe1191     O1196   2.116       .  S
Fe1191     O1203   2.026       .  S
Fe1191     O1192   2.130       .  S
Fe1191     O1200   1.940       .  S
O1192      C1199   1.268       .  A
O1193      C1207   1.282       .  A
O1194      C1199   1.259       .  A
O1195      C1198   1.281       .  A
O1196      C1472   1.275       .  A
O1197      C1210   1.296       .  A
C1198      O1203   1.279       .  A
C1198      C1308   1.434       .  S
C1199      C1221   1.488       .  S
O1201      C1204   1.245       .  A
O1202      C1204   1.281       .  A
C1204      C2040   1.448   1_545  S
O1205      C1210   1.255       .  A
O1206     Fe1454   2.043   1_554  S
O1206      C1208   1.263       .  A
C1207      O1209   1.291       .  A
C1208      O1460   1.275   1_554  A
C1208      C1318   1.460       .  S
C1210      C1603   1.496   1_545  S
Fe1211     O1227   2.026       .  S
Fe1211     O1217   2.074       .  S
Fe1211     O1224   2.133       .  S
Fe1211     O1216   2.021       .  S
Fe1211     O1222   1.922       .  S
Fe1212     O1215   2.070       .  S
Fe1212     O1219   2.189       .  S
Fe1212     O1223   2.017       .  S
Fe1212     O1228   2.043       .  S
Fe1212     O1222   1.916       .  S
Fe1213     O1231   2.138       .  S
Fe1213     O1218   2.117       .  S
Fe1213     O1225   2.026       .  S
Fe1213     O1214   2.129       .  S
Fe1213     O1222   1.939       .  S
O1214      C1221   1.268       .  A
O1215      C1229   1.282       .  A
O1216      C1221   1.259       .  A
O1217      C1220   1.280       .  A
O1218      C1230   1.274       .  A
O1219      C1232   1.296       .  A
C1220      O1225   1.279       .  A
O1223      C1226   1.244       .  A
O1224      C1226   1.281       .  A
C1226      C1644   1.448   1_545  S
O1227      C1232   1.255       .  A
O1228      C1230   1.263       .  A
C1229      O1231   1.291       .  A
C1232      C1669   1.496   1_545  S
Fe1233     O1249   2.026       .  S
Fe1233     O1239   2.074       .  S
Fe1233     O1246   2.133       .  S
Fe1233     O1238   2.021       .  S
Fe1233     O1244   1.922       .  S
Fe1234     O1237   2.070       .  S
Fe1234     O1241   2.188       .  S
Fe1234     O1245   2.017       .  S
Fe1234     O1514   2.044       .  S
Fe1234     O1244   1.916       .  S
Fe1235     O1253   2.138       .  S
Fe1235     O1240   2.117       .  S
Fe1235     O1247   2.026       .  S
Fe1235     O1236   2.129       .  S
Fe1235     O1244   1.939       .  S
O1236      C1243   1.268       .  A
O1237      C1251   1.282       .  A
O1238      C1243   1.259       .  A
O1239      C1242   1.280       .  A
O1240      C1516   1.274   1_554  A
O1241      C1254   1.296       .  A
C1242      O1247   1.279       .  A
O1245      C1248   1.245       .  A
O1246      C1248   1.281       .  A
C1248      C1996   1.448   1_554  S
O1249      C1254   1.255       .  A
O1250     Fe1498   2.044       .  S
O1250      C1252   1.263       .  A
C1251      O1253   1.291       .  A
C1252      O1504   1.274       .  A
C1254      C1845   1.496       .  S
Fe1255     O1271   2.026       .  S
Fe1255     O1261   2.075       .  S
Fe1255     O1268   2.132       .  S
Fe1255     O1260   2.020       .  S
Fe1255     O1266   1.921       .  S
Fe1256     O1259   2.070       .  S
Fe1256     O1263   2.188       .  S
Fe1256     O1267   2.016       .  S
Fe1256     O1272   2.043       .  S
Fe1256     O1266   1.918       .  S
Fe1257     O1275   2.138       .  S
Fe1257     O1262   2.116       .  S
Fe1257     O1269   2.027       .  S
Fe1257     O1258   2.130       .  S
Fe1257     O1266   1.940       .  S
O1258      C1265   1.268       .  A
O1259      C1273   1.282       .  A
O1260      C1265   1.259       .  A
O1261      C1264   1.281       .  A
O1262      C1274   1.275       .  A
O1263      C1276   1.296       .  A
C1264      O1269   1.279       .  A
O1267      C1270   1.245       .  A
O1268      C1270   1.281       .  A
O1271      C1276   1.255       .  A
O1272      C1274   1.263       .  A
C1273      O1275   1.291       .  A
C1273      C1320   1.496       .  S
Fe1277     O1293   2.026       .  S
Fe1277     O1283   2.076       .  S
Fe1277     O1554   2.131   1_554  S
Fe1277     O1282   2.020       .  S
Fe1277     O1288   1.921       .  S
Fe1278     O1281   2.070       .  S
Fe1278     O1549   2.187       .  S
Fe1278     O1289   2.015       .  S
Fe1278     O1294   2.044       .  S
Fe1278     O1552   1.918       .  S
Fe1279     O1561   2.137   1_554  S
Fe1279     O1548   2.116   1_554  S
Fe1279     O1291   2.027       .  S
Fe1279     O1280   2.130       .  S
Fe1279     O1288   1.940       .  S
O1280      C1287   1.268       .  A
O1281      C1295   1.282       .  A
O1282      C1287   1.258       .  A
O1283      C1286   1.281       .  A
O1284     Fe1543   2.116       .  S
O1284      C1296   1.275       .  A
O1285     Fe1542   2.187   1_554  S
O1285      C1298   1.296   1_655  A
C1286      O1291   1.279       .  A
O1288     Fe1542   1.918   1_554  S
O1289      C1292   1.246       .  A
O1290     Fe1541   2.131       .  S
O1290      C1292   1.281       .  A
O1293      C1298   1.255   1_655  A
O1294      C1296   1.264       .  A
C1295      O1297   1.291       .  A
O1297     Fe1543   2.137       .  S
Fe1299     O1315   2.026       .  S
Fe1299     O1305   2.075       .  S
Fe1299     O1312   2.133       .  S
Fe1299     O1304   2.021       .  S
Fe1299     O1310   1.922       .  S
Fe1300     O1303   2.071       .  S
Fe1300     O1307   2.188       .  S
Fe1300     O1311   2.017       .  S
Fe1300     O1316   2.043       .  S
Fe1300     O1310   1.917       .  S
Fe1301     O1319   2.138       .  S
Fe1301     O1306   2.117       .  S
Fe1301     O1313   2.027       .  S
Fe1301     O1302   2.129       .  S
Fe1301     O1310   1.939       .  S
O1302      C1309   1.268       .  A
O1303      C1317   1.283       .  A
O1304      C1309   1.259       .  A
O1305      C1308   1.281       .  A
O1306      C1318   1.275       .  A
O1307      C1320   1.296       .  A
C1308      O1313   1.279       .  A
O1311      C1314   1.245       .  A
O1312      C1314   1.281       .  A
O1315      C1320   1.255       .  A
O1316      C1318   1.263       .  A
C1317      O1319   1.291       .  A
C1317      C1782   1.496       .  S
Fe1321     O1337   2.026       .  S
Fe1321     O1327   2.074       .  S
Fe1321     O1334   2.134       .  S
Fe1321     O1326   2.021       .  S
Fe1321     O1332   1.922       .  S
Fe1322     O1325   2.070       .  S
Fe1322     O1329   2.189       .  S
Fe1322     O1333   2.018       .  S
Fe1322     O1338   2.042       .  S
Fe1322     O1332   1.916       .  S
Fe1323     O1341   2.139       .  S
Fe1323     O1328   2.118       .  S
Fe1323     O1335   2.026       .  S
Fe1323     O1324   2.130       .  S
Fe1323     O1332   1.938       .  S
O1324      C1331   1.269       .  A
O1325      C1339   1.283       .  A
O1326      C1331   1.259       .  A
O1327      C1330   1.280       .  A
O1328      C1340   1.274       .  A
O1329      C1342   1.296       .  A
C1330      O1335   1.279       .  A
C1330      C1506   1.434       .  S
C1331      C1529   1.488       .  S
O1333      C1336   1.244       .  A
O1334      C1336   1.281       .  A
O1337      C1342   1.255       .  A
O1338      C1340   1.262       .  A
C1339      O1341   1.292       .  A
C1339      C2002   1.496       .  S
C1340      C1516   1.461       .  S
Fe1343     O1359   2.025       .  S
Fe1343     O1349   2.076       .  S
Fe1343     O1356   2.132       .  S
Fe1343     O1348   2.020       .  S
Fe1343     O1354   1.922       .  S
Fe1344     O1347   2.071       .  S
Fe1344     O1351   2.188       .  S
Fe1344     O1355   2.015       .  S
Fe1344     O1360   2.043       .  S
Fe1344     O1354   1.917       .  S
Fe1345     O1363   2.137       .  S
Fe1345     O1350   2.116       .  S
Fe1345     O1357   2.028       .  S
Fe1345     O1346   2.130       .  S
Fe1345     O1354   1.939       .  S
O1346      C1353   1.268       .  A
O1347      C1361   1.282       .  A
O1348      C1353   1.259       .  A
O1349      C1352   1.281       .  A
O1350      C1362   1.275       .  A
O1351      C1364   1.296       .  A
C1352      O1357   1.279       .  A
C1352      C1550   1.435       .  S
C1353      C1573   1.487       .  S
O1355      C1358   1.245       .  A
O1356      C1358   1.281       .  A
C1358      C1402   1.448       .  S
O1359      C1364   1.255       .  A
O1360      C1362   1.263       .  A
C1361      O1363   1.291       .  A
C1362      C1560   1.460       .  S
C1364      C1383   1.496       .  S
Fe1365     O1381   2.026       .  S
Fe1365     O1371   2.076       .  S
Fe1365     O1378   2.131       .  S
Fe1365     O1370   2.020       .  S
Fe1365     O1376   1.921       .  S
Fe1366     O1369   2.070       .  S
Fe1366     O1373   2.187       .  S
Fe1366     O1377   2.015       .  S
Fe1366     O1382   2.044       .  S
Fe1366     O1376   1.918       .  S
Fe1367     O1385   2.137       .  S
Fe1367     O1372   2.116       .  S
Fe1367     O1379   2.027       .  S
Fe1367     O1368   2.130       .  S
Fe1367     O1376   1.940       .  S
O1368      C1375   1.268       .  A
O1369      C1383   1.282       .  A
O1370      C1375   1.258       .  A
O1371      C1374   1.281       .  A
O1372      C1384   1.275       .  A
O1373      C1386   1.296       .  A
C1374      O1379   1.279       .  A
C1374      C1396   1.435       .  S
C1375      C1507   1.487       .  S
O1377      C1380   1.245       .  A
O1378      C1380   1.281       .  A
C1380      C2018   1.448       .  S
O1381      C1386   1.255       .  A
O1382      C1384   1.264       .  A
C1383      O1385   1.291       .  A
C1384      C1406   1.460       .  S
C1386      C1977   1.496       .  S
Fe1387     O1403   2.025       .  S
Fe1387     O1400   2.133       .  S
Fe1387     O1392   2.020       .  S
Fe1387     O1398   1.922       .  S
Fe1388     O1391   2.071       .  S
Fe1388     O1395   2.188       .  S
Fe1388     O1399   2.016       .  S
Fe1388     O1404   2.043       .  S
Fe1388     O1398   1.917       .  S
Fe1389     O1407   2.137       .  S
Fe1389     O1394   2.117       .  S
Fe1389     O1390   2.129       .  S
Fe1389     O1398   1.939       .  S
O1390      C1397   1.268       .  A
O1391      C1405   1.282       .  A
O1392      C1397   1.259       .  A
O1393      C1396   1.281       .  A
O1394      C1406   1.275       .  A
O1395      C1408   1.296       .  A
C1396      O1401   1.279       .  A
C1397      C1419   1.487       .  S
O1399      C1402   1.245       .  A
O1400      C1402   1.281       .  A
O1403      C1408   1.255       .  A
O1404      C1406   1.263       .  A
C1405      O1407   1.291       .  A
C1405      C2024   1.496       .  S
C1408      C1559   1.496       .  S
Fe1409     O1425   2.026       .  S
Fe1409     O1415   2.075       .  S
Fe1409     O1414   2.020       .  S
Fe1410     O1413   2.071       .  S
Fe1410     O1417   2.188       .  S
Fe1410     O1421   2.016       .  S
Fe1410     O1426   2.044       .  S
Fe1410     O1420   1.917       .  S
Fe1411     O1423   2.027   1_554  S
Fe1411     O1412   2.129   1_554  S
O1412      C1419   1.268       .  A
O1413      C1427   1.282       .  A
O1414      C1419   1.259       .  A
O1415      C1418   1.281       .  A
O1416      C1428   1.275       .  A
C1418      O1423   1.279       .  A
C1418      C1528   1.435       .  S
O1421      C1424   1.245       .  A
O1422      C1424   1.281       .  A
C1424      C1578   1.448       .  S
O1425      C1430   1.255       .  A
O1426      C1428   1.263       .  A
C1427      O1429   1.291       .  A
C1428      C1538   1.460       .  S
C1430      C1471   1.496       .  S
Fe1431     O1447   2.026       .  S
Fe1431     O1436   2.021       .  S
Fe1431     O1442   1.922       .  S
Fe1432     O1435   2.070       .  S
Fe1432     O1439   2.188       .  S
Fe1432     O1443   2.017       .  S
Fe1432     O1448   2.043       .  S
Fe1432     O1442   1.917       .  S
Fe1433     O1451   2.138       .  S
Fe1433     O1438   2.117       .  S
Fe1433     O1445   2.026       .  S
Fe1433     O1434   2.129       .  S
Fe1433     O1442   1.938       .  S
O1434      C1441   1.269       .  A
O1435      C1449   1.282       .  A
O1436      C1441   1.259       .  A
O1437      C1440   1.280       .  A
O1438      C1450   1.274       .  A
O1439      C1452   1.296   1_655  A
C1440      C1484   1.434       .  S
C1441      C1551   1.488       .  S
O1443      C1446   1.244       .  A
O1447      C1452   1.255   1_655  A
O1448      C1450   1.263       .  A
C1449      O1451   1.291       .  A
C1449      C1914   1.496       .  S
C1450      C1494   1.461       .  S
Fe1453     O1469   2.026       .  S
Fe1453     O1459   2.075       .  S
Fe1453     O1466   2.132       .  S
Fe1453     O1458   2.020       .  S
Fe1453     O1464   1.921       .  S
Fe1454     O1457   2.070       .  S
Fe1454     O1461   2.188       .  S
Fe1454     O1465   2.016       .  S
Fe1454     O1464   1.917       .  S
Fe1455     O1473   2.138       .  S
Fe1455     O1460   2.116       .  S
Fe1455     O1467   2.026       .  S
Fe1455     O1456   2.130       .  S
Fe1455     O1464   1.940       .  S
O1456      C1463   1.268       .  A
O1457      C1471   1.282       .  A
O1458      C1463   1.259       .  A
O1459      C1462   1.281       .  A
O1461      C1474   1.296       .  A
C1462      O1467   1.279       .  A
C1462      C1572   1.434       .  S
C1463      C1485   1.488       .  S
O1465      C1468   1.245       .  A
O1466      C1468   1.281       .  A
C1468      C1776   1.448   1_546  S
O1469      C1474   1.255       .  A
O1470      C1472   1.263       .  A
C1471      O1473   1.291       .  A
C1472      C1582   1.460       .  S
C1474      C1867   1.496   1_545  S
Fe1475     O1491   2.026       .  S
Fe1475     O1481   2.074       .  S
Fe1475     O1488   2.133       .  S
Fe1475     O1480   2.021       .  S
Fe1475     O1486   1.922       .  S
Fe1476     O1479   2.070       .  S
Fe1476     O1483   2.189       .  S
Fe1476     O1487   2.017       .  S
Fe1476     O1492   2.043       .  S
Fe1476     O1486   1.916       .  S
Fe1477     O1495   2.138       .  S
Fe1477     O1482   2.117       .  S
Fe1477     O1489   2.026       .  S
Fe1477     O1478   2.129       .  S
Fe1477     O1486   1.939       .  S
O1478      C1485   1.268       .  A
O1479      C1493   1.282       .  A
O1480      C1485   1.259       .  A
O1481      C1484   1.280       .  A
O1482      C1494   1.274       .  A
O1483      C1496   1.296       .  A
C1484      O1489   1.279       .  A
O1487      C1490   1.244       .  A
O1488      C1490   1.281       .  A
C1490      C1908   1.448   1_545  S
O1491      C1496   1.255       .  A
O1492      C1494   1.263       .  A
C1493      O1495   1.291       .  A
C1496      C1933   1.496   1_545  S
Fe1497     O1513   2.026       .  S
Fe1497     O1503   2.074       .  S
Fe1497     O1510   2.133       .  S
Fe1497     O1502   2.021       .  S
Fe1497     O1508   1.922       .  S
Fe1498     O1501   2.070       .  S
Fe1498     O1505   2.188       .  S
Fe1498     O1509   2.017       .  S
Fe1498     O1508   1.916       .  S
Fe1499     O1517   2.138       .  S
Fe1499     O1504   2.117       .  S
Fe1499     O1511   2.026       .  S
Fe1499     O1500   2.129       .  S
Fe1499     O1508   1.939       .  S
O1500      C1507   1.268       .  A
O1501      C1515   1.282       .  A
O1502      C1507   1.259       .  A
O1503      C1506   1.280       .  A
O1505      C1518   1.296       .  A
C1506      O1511   1.279       .  A
O1509      C1512   1.245       .  A
O1510      C1512   1.281       .  A
C1512      C1732   1.448       .  S
O1513      C1518   1.255       .  A
O1514      C1516   1.263   1_554  A
C1515      O1517   1.291       .  A
C1518      C2109   1.496       .  S
Fe1519     O1535   2.026       .  S
Fe1519     O1525   2.075       .  S
Fe1519     O1532   2.132       .  S
Fe1519     O1524   2.020       .  S
Fe1519     O1530   1.921       .  S
Fe1520     O1523   2.070       .  S
Fe1520     O1527   2.188       .  S
Fe1520     O1531   2.016       .  S
Fe1520     O1536   2.043       .  S
Fe1520     O1530   1.918       .  S
Fe1521     O1539   2.138       .  S
Fe1521     O1526   2.116       .  S
Fe1521     O1533   2.027       .  S
Fe1521     O1522   2.130       .  S
Fe1521     O1530   1.940       .  S
O1522      C1529   1.268       .  A
O1523      C1537   1.282       .  A
O1524      C1529   1.259       .  A
O1525      C1528   1.281       .  A
O1526      C1538   1.275       .  A
O1527      C1540   1.296       .  A
C1528      O1533   1.279       .  A
O1531      C1534   1.245       .  A
O1532      C1534   1.281       .  A
O1535      C1540   1.255       .  A
O1536      C1538   1.263       .  A
C1537      O1539   1.291       .  A
C1537      C1584   1.496       .  S
Fe1541     O1557   2.026       .  S
Fe1541     O1547   2.076       .  S
Fe1541     O1546   2.020       .  S
Fe1541     O1552   1.921       .  S
Fe1542     O1545   2.070       .  S
Fe1542     O1553   2.015       .  S
Fe1542     O1558   2.044       .  S
Fe1543     O1555   2.027       .  S
Fe1543     O1544   2.130       .  S
Fe1543     O1552   1.940       .  S
O1544      C1551   1.268       .  A
O1545      C1559   1.282       .  A
O1546      C1551   1.258       .  A
O1547      C1550   1.281       .  A
O1548      C1560   1.275       .  A
O1549      C1562   1.296   1_655  A
C1550      O1555   1.279       .  A
O1553      C1556   1.246       .  A
O1554      C1556   1.281       .  A
O1557      C1562   1.255   1_655  A
O1558      C1560   1.264       .  A
C1559      O1561   1.291       .  A
Fe1563     O1579   2.026       .  S
Fe1563     O1569   2.075       .  S
Fe1563     O1576   2.133       .  S
Fe1563     O1568   2.021       .  S
Fe1563     O1574   1.922       .  S
Fe1564     O1567   2.071       .  S
Fe1564     O1571   2.188       .  S
Fe1564     O1575   2.017       .  S
Fe1564     O1580   2.043       .  S
Fe1564     O1574   1.917       .  S
Fe1565     O1583   2.138       .  S
Fe1565     O1570   2.117       .  S
Fe1565     O1577   2.027       .  S
Fe1565     O1566   2.129       .  S
Fe1565     O1574   1.939       .  S
O1566      C1573   1.268       .  A
O1567      C1581   1.283       .  A
O1568      C1573   1.259       .  A
O1569      C1572   1.281       .  A
O1570      C1582   1.275       .  A
O1571      C1584   1.296       .  A
C1572      O1577   1.279       .  A
O1575      C1578   1.245       .  A
O1576      C1578   1.281       .  A
O1579      C1584   1.255       .  A
O1580      C1582   1.263       .  A
C1581      O1583   1.291       .  A
C1581      C2046   1.496       .  S
Fe1585     O1601   2.026       .  S
Fe1585     O1591   2.074       .  S
Fe1585     O1598   2.134       .  S
Fe1585     O1590   2.021       .  S
Fe1585     O1596   1.922       .  S
Fe1586     O1589   2.070       .  S
Fe1586     O1593   2.189       .  S
Fe1586     O1597   2.018       .  S
Fe1586     O1602   2.042       .  S
Fe1586     O1596   1.916       .  S
Fe1587     O1605   2.139       .  S
Fe1587     O1592   2.118       .  S
Fe1587     O1599   2.026       .  S
Fe1587     O1588   2.130       .  S
Fe1587     O1596   1.938       .  S
O1588      C1595   1.269       .  A
O1589      C1603   1.283       .  A
O1590      C1595   1.259       .  A
O1591      C1594   1.280       .  A
O1592      C1604   1.274       .  A
O1593      C1606   1.296       .  A
C1594      O1599   1.279       .  A
C1594      C1770   1.434       .  S
C1595      C1793   1.488       .  S
O1597      C1600   1.244       .  A
O1598      C1600   1.281       .  A
O1601      C1606   1.255       .  A
O1602      C1604   1.262       .  A
C1603      O1605   1.292       .  A
C1604      C1780   1.461       .  S
Fe1607     O1623   2.025       .  S
Fe1607     O1613   2.076       .  S
Fe1607     O1620   2.132       .  S
Fe1607     O1612   2.020       .  S
Fe1607     O1618   1.922       .  S
Fe1608     O1611   2.071       .  S
Fe1608     O1615   2.188       .  S
Fe1608     O1619   2.015       .  S
Fe1608     O1624   2.043       .  S
Fe1608     O1618   1.917       .  S
Fe1609     O1627   2.137       .  S
Fe1609     O1614   2.116       .  S
Fe1609     O1621   2.028       .  S
Fe1609     O1610   2.130       .  S
Fe1609     O1618   1.939       .  S
O1610      C1617   1.268       .  A
O1611      C1625   1.282       .  A
O1612      C1617   1.259       .  A
O1613      C1616   1.281       .  A
O1614      C1626   1.275       .  A
O1615      C1628   1.296       .  A
C1616      O1621   1.279       .  A
C1616      C1814   1.435       .  S
C1617      C1837   1.487       .  S
O1619      C1622   1.245       .  A
O1620      C1622   1.281       .  A
C1622      C1666   1.448       .  S
O1623      C1628   1.255       .  A
O1624      C1626   1.263       .  A
C1625      O1627   1.291       .  A
C1626      C1824   1.460       .  S
C1628      C1647   1.496       .  S
Fe1629     O1645   2.026       .  S
Fe1629     O1635   2.076       .  S
Fe1629     O1642   2.131       .  S
Fe1629     O1634   2.020       .  S
Fe1629     O1640   1.921       .  S
Fe1630     O1633   2.070       .  S
Fe1630     O1637   2.187       .  S
Fe1630     O1641   2.015       .  S
Fe1630     O1646   2.044       .  S
Fe1630     O1640   1.918       .  S
Fe1631     O1649   2.137       .  S
Fe1631     O1636   2.116       .  S
Fe1631     O1643   2.027       .  S
Fe1631     O1632   2.130       .  S
Fe1631     O1640   1.940       .  S
O1632      C1639   1.268       .  A
O1633      C1647   1.282       .  A
O1634      C1639   1.258       .  A
O1635      C1638   1.281       .  A
O1636      C1648   1.275       .  A
O1637      C1650   1.296   1_565  A
C1638      O1643   1.279       .  A
C1638      C1660   1.435       .  S
C1639      C1771   1.487       .  S
O1641      C1644   1.245       .  A
O1642      C1644   1.281       .  A
O1645      C1650   1.255   1_565  A
O1646      C1648   1.264       .  A
C1647      O1649   1.291       .  A
C1648      C1670   1.460       .  S
Fe1651     O1667   2.025       .  S
Fe1651     O1921   2.075       .  S
Fe1651     O1664   2.133       .  S
Fe1651     O1656   2.020       .  S
Fe1651     O1662   1.922       .  S
Fe1652     O1655   2.071       .  S
Fe1652     O1659   2.188       .  S
Fe1652     O1663   2.016       .  S
Fe1652     O1668   2.043       .  S
Fe1652     O1662   1.917       .  S
Fe1653     O1671   2.137       .  S
Fe1653     O1658   2.117       .  S
Fe1653     O1929   2.027       .  S
Fe1653     O1654   2.129       .  S
Fe1653     O1662   1.939       .  S
O1654      C1661   1.268       .  A
O1655      C1669   1.282       .  A
O1656      C1661   1.259       .  A
O1657     Fe1915   2.075   1_554  S
O1657      C1660   1.281       .  A
O1658      C1670   1.275       .  A
O1659      C1672   1.296       .  A
C1660      O1665   1.279   1_554  A
C1661      C1683   1.487       .  S
O1663      C1666   1.245       .  A
O1664      C1666   1.281       .  A
O1665     Fe1917   2.027       .  S
O1667      C1672   1.255       .  A
O1668      C1670   1.263       .  A
C1669      O1671   1.291       .  A
C1672      C1823   1.496       .  S
Fe1673     O1689   2.026       .  S
Fe1673     O1679   2.075       .  S
Fe1673     O1950   2.132       .  S
Fe1673     O1678   2.020       .  S
Fe1673     O1948   1.922       .  S
Fe1674     O1677   2.071       .  S
Fe1674     O1681   2.188   1_554  S
Fe1674     O1685   2.016       .  S
Fe1674     O1690   2.044       .  S
Fe1674     O1684   1.917       .  S
Fe1675     O1957   2.137       .  S
Fe1675     O1944   2.116       .  S
Fe1675     O1687   2.027       .  S
Fe1675     O1676   2.129       .  S
Fe1675     O1948   1.939       .  S
O1676      C1683   1.268       .  A
O1677      C1691   1.282       .  A
O1678      C1683   1.259       .  A
O1679      C1682   1.281       .  A
O1680     Fe1939   2.116       .  S
O1680      C1692   1.275       .  A
O1681      C1958   1.296       .  A
C1682      O1687   1.279       .  A
C1682      C1792   1.435       .  S
O1684     Fe1937   1.922   1_554  S
O1684     Fe1939   1.939       .  S
O1685      C1688   1.245       .  A
O1686     Fe1937   2.132   1_554  S
O1686      C1688   1.281       .  A
C1688      C1842   1.448       .  S
O1689      C1694   1.255       .  A
O1690      C1692   1.263       .  A
C1691      O1693   1.291       .  A
C1692      C1802   1.460       .  S
O1693     Fe1939   2.137       .  S
C1694      O1945   1.296       .  A
C1694      C1735   1.496       .  S
Fe1695     O1711   2.026       .  S
Fe1695     O1965   2.074   1_554  S
Fe1695     O1700   2.021       .  S
Fe1695     O1706   1.922       .  S
Fe1696     O1699   2.070       .  S
Fe1696     O1703   2.188       .  S
Fe1696     O1707   2.017       .  S
Fe1696     O1712   2.043       .  S
Fe1696     O1706   1.917       .  S
Fe1697     O1715   2.138       .  S
Fe1697     O1702   2.117       .  S
Fe1697     O1709   2.026       .  S
Fe1697     O1698   2.129       .  S
Fe1697     O1706   1.938       .  S
O1698      C1705   1.269       .  A
O1699      C1713   1.282       .  A
O1700      C1705   1.259       .  A
O1701     Fe1959   2.074       .  S
O1701      C1704   1.280       .  A
O1702      C1714   1.274       .  A
O1703      C1716   1.296   1_655  A
C1704      O1973   1.279       .  A
C1704      C1748   1.434       .  S
C1705      C1815   1.488       .  S
O1707      C1710   1.244       .  A
O1709      C1968   1.279   1_554  A
O1711      C1716   1.255   1_655  A
O1712      C1714   1.263       .  A
C1713      O1715   1.291       .  A
C1714      C1758   1.461       .  S
Fe1717     O1733   2.026       .  S
Fe1717     O1723   2.075       .  S
Fe1717     O1730   2.132       .  S
Fe1717     O1722   2.020       .  S
Fe1717     O1728   1.921       .  S
Fe1718     O1721   2.070       .  S
Fe1718     O1725   2.188       .  S
Fe1718     O1729   2.016       .  S
Fe1718     O1998   2.043       .  S
Fe1718     O1728   1.917       .  S
Fe1719     O1737   2.138       .  S
Fe1719     O1724   2.116       .  S
Fe1719     O1731   2.026       .  S
Fe1719     O1720   2.130       .  S
Fe1719     O1728   1.940       .  S
O1720      C1727   1.268       .  A
O1721      C1735   1.282       .  A
O1722      C1727   1.259       .  A
O1723      C1726   1.281       .  A
O1724      C2000   1.275       .  A
O1725      C1738   1.296       .  A
C1726      O1731   1.279       .  A
C1726      C1836   1.434       .  S
C1727      C1749   1.488       .  S
O1729      C1732   1.245       .  A
O1730      C1732   1.281       .  A
O1733      C1738   1.255       .  A
O1734     Fe1982   2.043   1_554  S
O1734      C1736   1.263       .  A
C1735      O1737   1.291       .  A
C1736      O1988   1.275   1_554  A
C1736      C1846   1.460       .  S
Fe1739     O1755   2.026       .  S
Fe1739     O1745   2.074       .  S
Fe1739     O1752   2.133       .  S
Fe1739     O1744   2.021       .  S
Fe1739     O1750   1.922       .  S
Fe1740     O1743   2.070       .  S
Fe1740     O1747   2.189       .  S
Fe1740     O1751   2.017       .  S
Fe1740     O1756   2.043       .  S
Fe1740     O1750   1.916       .  S
Fe1741     O1759   2.138       .  S
Fe1741     O1746   2.117       .  S
Fe1741     O1753   2.026       .  S
Fe1741     O1742   2.129       .  S
Fe1741     O1750   1.939       .  S
O1742      C1749   1.268       .  A
O1743      C1757   1.282       .  A
O1744      C1749   1.259       .  A
O1745      C1748   1.280       .  A
O1746      C1758   1.274       .  A
O1747      C1760   1.296       .  A
C1748      O1753   1.279       .  A
O1751      C1754   1.244       .  A
O1752      C1754   1.281       .  A
O1755      C1760   1.255       .  A
O1756      C1758   1.263       .  A
C1757      O1759   1.291       .  A
Fe1761     O1777   2.026       .  S
Fe1761     O1767   2.074       .  S
Fe1761     O1774   2.133       .  S
Fe1761     O1766   2.021       .  S
Fe1761     O1772   1.922       .  S
Fe1762     O1765   2.070       .  S
Fe1762     O1769   2.188       .  S
Fe1762     O1773   2.017       .  S
Fe1762     O2042   2.044       .  S
Fe1762     O1772   1.916       .  S
Fe1763     O1781   2.138       .  S
Fe1763     O1768   2.117       .  S
Fe1763     O1775   2.026       .  S
Fe1763     O1764   2.129       .  S
Fe1763     O1772   1.939       .  S
O1764      C1771   1.268       .  A
O1765      C1779   1.282       .  A
O1766      C1771   1.259       .  A
O1767      C1770   1.280       .  A
O1768      C2044   1.274   1_554  A
O1769      C1782   1.296   1_565  A
C1770      O1775   1.279       .  A
O1773      C1776   1.245       .  A
O1774      C1776   1.281       .  A
O1777      C1782   1.255   1_565  A
O1778     Fe2026   2.044       .  S
O1778      C1780   1.263       .  A
C1779      O1781   1.291       .  A
C1780      O2032   1.274       .  A
Fe1783     O1799   2.026       .  S
Fe1783     O1789   2.075       .  S
Fe1783     O1796   2.132       .  S
Fe1783     O1788   2.020       .  S
Fe1783     O1794   1.921       .  S
Fe1784     O1787   2.070       .  S
Fe1784     O1791   2.188       .  S
Fe1784     O1795   2.016       .  S
Fe1784     O1800   2.043       .  S
Fe1784     O1794   1.918       .  S
Fe1785     O1803   2.138       .  S
Fe1785     O1790   2.116       .  S
Fe1785     O1797   2.027       .  S
Fe1785     O1786   2.130       .  S
Fe1785     O1794   1.940       .  S
O1786      C1793   1.268       .  A
O1787      C1801   1.282       .  A
O1788      C1793   1.259       .  A
O1789      C1792   1.281       .  A
O1790      C1802   1.275       .  A
O1791      C1804   1.296       .  A
C1792      O1797   1.279       .  A
O1795      C1798   1.245       .  A
O1796      C1798   1.281       .  A
O1799      C1804   1.255       .  A
O1800      C1802   1.263       .  A
C1801      O1803   1.291       .  A
C1801      C1848   1.496       .  S
Fe1805     O1821   2.026       .  S
Fe1805     O1811   2.076       .  S
Fe1805     O2082   2.131   1_554  S
Fe1805     O1810   2.020       .  S
Fe1805     O1816   1.921       .  S
Fe1806     O1809   2.070       .  S
Fe1806     O2077   2.187       .  S
Fe1806     O1817   2.015       .  S
Fe1806     O1822   2.044       .  S
Fe1806     O2080   1.918       .  S
Fe1807     O2089   2.137   1_554  S
Fe1807     O2076   2.116   1_554  S
Fe1807     O1819   2.027       .  S
Fe1807     O1808   2.130       .  S
Fe1807     O1816   1.940       .  S
O1808      C1815   1.268       .  A
O1809      C1823   1.282       .  A
O1810      C1815   1.258       .  A
O1811      C1814   1.281       .  A
O1812     Fe2071   2.116       .  S
O1812      C1824   1.275       .  A
O1813     Fe2070   2.187   1_554  S
O1813      C1826   1.296   1_655  A
C1814      O1819   1.279       .  A
O1816     Fe2070   1.918   1_554  S
O1817      C1820   1.246       .  A
O1818     Fe2069   2.131       .  S
O1818      C1820   1.281       .  A
O1821      C1826   1.255   1_655  A
O1822      C1824   1.264       .  A
C1823      O1825   1.291       .  A
O1825     Fe2071   2.137       .  S
Fe1827     O1843   2.026       .  S
Fe1827     O1833   2.075       .  S
Fe1827     O1840   2.133       .  S
Fe1827     O1832   2.021       .  S
Fe1827     O1838   1.922       .  S
Fe1828     O1831   2.071       .  S
Fe1828     O1835   2.188       .  S
Fe1828     O1839   2.017       .  S
Fe1828     O1844   2.043       .  S
Fe1828     O1838   1.917       .  S
Fe1829     O1847   2.138       .  S
Fe1829     O1834   2.117       .  S
Fe1829     O1841   2.027       .  S
Fe1829     O1830   2.129       .  S
Fe1829     O1838   1.939       .  S
O1830      C1837   1.268       .  A
O1831      C1845   1.283       .  A
O1832      C1837   1.259       .  A
O1833      C1836   1.281       .  A
O1834      C1846   1.275       .  A
O1835      C1848   1.296       .  A
C1836      O1841   1.279       .  A
O1839      C1842   1.245       .  A
O1840      C1842   1.281       .  A
O1843      C1848   1.255       .  A
O1844      C1846   1.263       .  A
C1845      O1847   1.291       .  A
Fe1849     O1865   2.026       .  S
Fe1849     O1855   2.074       .  S
Fe1849     O1862   2.134       .  S
Fe1849     O1854   2.021       .  S
Fe1849     O1860   1.922       .  S
Fe1850     O1853   2.070       .  S
Fe1850     O1857   2.189       .  S
Fe1850     O1861   2.018       .  S
Fe1850     O1866   2.042       .  S
Fe1850     O1860   1.916       .  S
Fe1851     O1869   2.139       .  S
Fe1851     O1856   2.118       .  S
Fe1851     O1863   2.026       .  S
Fe1851     O1852   2.130       .  S
Fe1851     O1860   1.938       .  S
O1852      C1859   1.269       .  A
O1853      C1867   1.283       .  A
O1854      C1859   1.259       .  A
O1855      C1858   1.280       .  A
O1856      C1868   1.274       .  A
O1857      C1870   1.296       .  A
C1858      O1863   1.279       .  A
C1858      C2034   1.434       .  S
C1859      C2057   1.488       .  S
O1861      C1864   1.244       .  A
O1862      C1864   1.281       .  A
O1865      C1870   1.255       .  A
O1866      C1868   1.262       .  A
C1867      O1869   1.292       .  A
C1868      C2044   1.461       .  S
Fe1871     O1887   2.025       .  S
Fe1871     O1877   2.076       .  S
Fe1871     O1884   2.132       .  S
Fe1871     O1876   2.020       .  S
Fe1871     O1882   1.922       .  S
Fe1872     O1875   2.071       .  S
Fe1872     O1879   2.188       .  S
Fe1872     O1883   2.015       .  S
Fe1872     O1888   2.043       .  S
Fe1872     O1882   1.917       .  S
Fe1873     O1891   2.137       .  S
Fe1873     O1878   2.116       .  S
Fe1873     O1885   2.028       .  S
Fe1873     O1874   2.130       .  S
Fe1873     O1882   1.939       .  S
O1874      C1881   1.268       .  A
O1875      C1889   1.282       .  A
O1876      C1881   1.259       .  A
O1877      C1880   1.281       .  A
O1878      C1890   1.275       .  A
O1879      C1892   1.296       .  A
C1880      O1885   1.279       .  A
C1880      C2078   1.435       .  S
C1881      C2101   1.487       .  S
O1883      C1886   1.245       .  A
O1884      C1886   1.281       .  A
C1886      C1930   1.448       .  S
O1887      C1892   1.255       .  A
O1888      C1890   1.263       .  A
C1889      O1891   1.291       .  A
C1890      C2088   1.460       .  S
C1892      C1911   1.496       .  S
Fe1893     O1909   2.026       .  S
Fe1893     O1899   2.076       .  S
Fe1893     O1906   2.131       .  S
Fe1893     O1898   2.020       .  S
Fe1893     O1904   1.921       .  S
Fe1894     O1897   2.070       .  S
Fe1894     O1901   2.187       .  S
Fe1894     O1905   2.015       .  S
Fe1894     O1910   2.044       .  S
Fe1894     O1904   1.918       .  S
Fe1895     O1913   2.137       .  S
Fe1895     O1900   2.116       .  S
Fe1895     O1907   2.027       .  S
Fe1895     O1896   2.130       .  S
Fe1895     O1904   1.940       .  S
O1896      C1903   1.268       .  A
O1897      C1911   1.282       .  A
O1898      C1903   1.258       .  A
O1899      C1902   1.281       .  A
O1900      C1912   1.275       .  A
O1901      C1914   1.296   1_565  A
C1902      O1907   1.279       .  A
C1902      C1924   1.435       .  S
C1903      C2035   1.487       .  S
O1905      C1908   1.245       .  A
O1906      C1908   1.281       .  A
O1909      C1914   1.255   1_565  A
O1910      C1912   1.264       .  A
C1911      O1913   1.291       .  A
C1912      C1934   1.460       .  S
Fe1915     O1931   2.025       .  S
Fe1915     O1928   2.133       .  S
Fe1915     O1920   2.020       .  S
Fe1915     O1926   1.922       .  S
Fe1916     O1919   2.071       .  S
Fe1916     O1923   2.188       .  S
Fe1916     O1927   2.016       .  S
Fe1916     O1932   2.043       .  S
Fe1916     O1926   1.917       .  S
Fe1917     O1935   2.137       .  S
Fe1917     O1922   2.117       .  S
Fe1917     O1918   2.129       .  S
Fe1917     O1926   1.939       .  S
O1918      C1925   1.268       .  A
O1919      C1933   1.282       .  A
O1920      C1925   1.259       .  A
O1921      C1924   1.281       .  A
O1922      C1934   1.275       .  A
O1923      C1936   1.296       .  A
C1924      O1929   1.279       .  A
C1925      C1947   1.487       .  S
O1927      C1930   1.245       .  A
O1928      C1930   1.281       .  A
O1931      C1936   1.255       .  A
O1932      C1934   1.263       .  A
C1933      O1935   1.291       .  A
C1936      C2087   1.496       .  S
Fe1937     O1953   2.026       .  S
Fe1937     O1943   2.075       .  S
Fe1937     O1942   2.020       .  S
Fe1938     O1941   2.071       .  S
Fe1938     O1945   2.188       .  S
Fe1938     O1949   2.016       .  S
Fe1938     O1954   2.044       .  S
Fe1938     O1948   1.917       .  S
Fe1939     O1951   2.027   1_554  S
Fe1939     O1940   2.129   1_554  S
O1940      C1947   1.268       .  A
O1941      C1955   1.282       .  A
O1942      C1947   1.259       .  A
O1943      C1946   1.281       .  A
O1944      C1956   1.275       .  A
C1946      O1951   1.279       .  A
C1946      C2056   1.435       .  S
O1949      C1952   1.245       .  A
O1950      C1952   1.281       .  A
C1952      C2106   1.448       .  S
O1953      C1958   1.255       .  A
O1954      C1956   1.263       .  A
C1955      O1957   1.291       .  A
C1956      C2066   1.460       .  S
C1958      C1999   1.496       .  S
Fe1959     O1975   2.026       .  S
Fe1959     O1964   2.021       .  S
Fe1959     O1970   1.922       .  S
Fe1960     O1963   2.070       .  S
Fe1960     O1967   2.188       .  S
Fe1960     O1971   2.017       .  S
Fe1960     O1976   2.043       .  S
Fe1960     O1970   1.917       .  S
Fe1961     O1979   2.138       .  S
Fe1961     O1966   2.117       .  S
Fe1961     O1973   2.026       .  S
Fe1961     O1962   2.129       .  S
Fe1961     O1970   1.938       .  S
O1962      C1969   1.269       .  A
O1963      C1977   1.282       .  A
O1964      C1969   1.259       .  A
O1965      C1968   1.280       .  A
O1966      C1978   1.274       .  A
O1967      C1980   1.296   1_655  A
C1968      C2012   1.434       .  S
C1969      C2079   1.488       .  S
O1971      C1974   1.244       .  A
O1975      C1980   1.255   1_655  A
O1976      C1978   1.263       .  A
C1977      O1979   1.291       .  A
C1978      C2022   1.461       .  S
Fe1981     O1997   2.026       .  S
Fe1981     O1987   2.075       .  S
Fe1981     O1994   2.132       .  S
Fe1981     O1986   2.020       .  S
Fe1981     O1992   1.921       .  S
Fe1982     O1985   2.070       .  S
Fe1982     O1989   2.188       .  S
Fe1982     O1993   2.016       .  S
Fe1982     O1992   1.917       .  S
Fe1983     O2001   2.138       .  S
Fe1983     O1988   2.116       .  S
Fe1983     O1995   2.026       .  S
Fe1983     O1984   2.130       .  S
Fe1983     O1992   1.940       .  S
O1984      C1991   1.268       .  A
O1985      C1999   1.282       .  A
O1986      C1991   1.259       .  A
O1987      C1990   1.281       .  A
O1989      C2002   1.296       .  A
C1990      O1995   1.279       .  A
C1990      C2100   1.434       .  S
C1991      C2013   1.488       .  S
O1993      C1996   1.245       .  A
O1994      C1996   1.281       .  A
O1997      C2002   1.255       .  A
O1998      C2000   1.263       .  A
C1999      O2001   1.291       .  A
C2000      C2110   1.460       .  S
Fe2003     O2019   2.026       .  S
Fe2003     O2009   2.074       .  S
Fe2003     O2016   2.133       .  S
Fe2003     O2008   2.021       .  S
Fe2003     O2014   1.922       .  S
Fe2004     O2007   2.070       .  S
Fe2004     O2011   2.189       .  S
Fe2004     O2015   2.017       .  S
Fe2004     O2020   2.043       .  S
Fe2004     O2014   1.916       .  S
Fe2005     O2023   2.138       .  S
Fe2005     O2010   2.117       .  S
Fe2005     O2017   2.026       .  S
Fe2005     O2006   2.129       .  S
Fe2005     O2014   1.939       .  S
O2006      C2013   1.268       .  A
O2007      C2021   1.282       .  A
O2008      C2013   1.259       .  A
O2009      C2012   1.280       .  A
O2010      C2022   1.274       .  A
O2011      C2024   1.296       .  A
C2012      O2017   1.279       .  A
O2015      C2018   1.244       .  A
O2016      C2018   1.281       .  A
O2019      C2024   1.255       .  A
O2020      C2022   1.263       .  A
C2021      O2023   1.291       .  A
Fe2025     O2041   2.026       .  S
Fe2025     O2031   2.074       .  S
Fe2025     O2038   2.133       .  S
Fe2025     O2030   2.021       .  S
Fe2025     O2036   1.922       .  S
Fe2026     O2029   2.070       .  S
Fe2026     O2033   2.188       .  S
Fe2026     O2037   2.017       .  S
Fe2026     O2036   1.916       .  S
Fe2027     O2045   2.138       .  S
Fe2027     O2032   2.117       .  S
Fe2027     O2039   2.026       .  S
Fe2027     O2028   2.129       .  S
Fe2027     O2036   1.939       .  S
O2028      C2035   1.268       .  A
O2029      C2043   1.282       .  A
O2030      C2035   1.259       .  A
O2031      C2034   1.280       .  A
O2033      C2046   1.296   1_565  A
C2034      O2039   1.279       .  A
O2037      C2040   1.245       .  A
O2038      C2040   1.281       .  A
O2041      C2046   1.255   1_565  A
O2042      C2044   1.263   1_554  A
C2043      O2045   1.291       .  A
Fe2047     O2063   2.026       .  S
Fe2047     O2053   2.075       .  S
Fe2047     O2060   2.132       .  S
Fe2047     O2052   2.020       .  S
Fe2047     O2058   1.921       .  S
Fe2048     O2051   2.070       .  S
Fe2048     O2055   2.188       .  S
Fe2048     O2059   2.016       .  S
Fe2048     O2064   2.043       .  S
Fe2048     O2058   1.918       .  S
Fe2049     O2067   2.138       .  S
Fe2049     O2054   2.116       .  S
Fe2049     O2061   2.027       .  S
Fe2049     O2050   2.130       .  S
Fe2049     O2058   1.940       .  S
O2050      C2057   1.268       .  A
O2051      C2065   1.282       .  A
O2052      C2057   1.259       .  A
O2053      C2056   1.281       .  A
O2054      C2066   1.275       .  A
O2055      C2068   1.296       .  A
C2056      O2061   1.279       .  A
O2059      C2062   1.245       .  A
O2060      C2062   1.281       .  A
O2063      C2068   1.255       .  A
O2064      C2066   1.263       .  A
C2065      O2067   1.291       .  A
C2065      C2112   1.496       .  S
Fe2069     O2085   2.026       .  S
Fe2069     O2075   2.076       .  S
Fe2069     O2074   2.020       .  S
Fe2069     O2080   1.921       .  S
Fe2070     O2073   2.070       .  S
Fe2070     O2081   2.015       .  S
Fe2070     O2086   2.044       .  S
Fe2071     O2083   2.027       .  S
Fe2071     O2072   2.130       .  S
Fe2071     O2080   1.940       .  S
O2072      C2079   1.268       .  A
O2073      C2087   1.282       .  A
O2074      C2079   1.258       .  A
O2075      C2078   1.281       .  A
O2076      C2088   1.275       .  A
O2077      C2090   1.296   1_655  A
C2078      O2083   1.279       .  A
O2081      C2084   1.246       .  A
O2082      C2084   1.281       .  A
O2085      C2090   1.255   1_655  A
O2086      C2088   1.264       .  A
C2087      O2089   1.291       .  A
Fe2091     O2107   2.026       .  S
Fe2091     O2097   2.075       .  S
Fe2091     O2104   2.133       .  S
Fe2091     O2096   2.021       .  S
Fe2091     O2102   1.922       .  S
Fe2092     O2095   2.071       .  S
Fe2092     O2099   2.188       .  S
Fe2092     O2103   2.017       .  S
Fe2092     O2108   2.043       .  S
Fe2092     O2102   1.917       .  S
Fe2093     O2111   2.138       .  S
Fe2093     O2098   2.117       .  S
Fe2093     O2105   2.027       .  S
Fe2093     O2094   2.129       .  S
Fe2093     O2102   1.939       .  S
O2094      C2101   1.268       .  A
O2095      C2109   1.283       .  A
O2096      C2101   1.259       .  A
O2097      C2100   1.281       .  A
O2098      C2110   1.275       .  A
O2099      C2112   1.296       .  A
C2100      O2105   1.279       .  A
O2103      C2106   1.245       .  A
O2104      C2106   1.281       .  A
O2107      C2112   1.255       .  A
O2108      C2110   1.263       .  A
C2109      O2111   1.291       .  A
