geometry optimzed in LAMMPS
_audit_creation_date              2020-12-01 
_audit_creation_method            'lammps2cif' 
_symmetry_space_group_name_H-M    'P1' 
_symmetry_Int_Tables_number       1 
_symmetry_cell_setting            triclinic 
loop_ 
_symmetry_equiv_pos_as_xyz 
  x,y,z 
_cell_length_a                    39.50045445 
_cell_length_b                    39.42219631835711 
_cell_length_c                    105.55970524826392 
_cell_angle_alpha                 90.00923760033635 
_cell_angle_beta                  90.10303080696572 
_cell_angle_gamma                 120.00111012241179 
loop_ 
_atom_site_label 
_atom_site_type_symbol 
_atom_site_fract_x 
_atom_site_fract_y 
_atom_site_fract_z 
_atom_site_charge 
Zr1        Zr  0.88625698  0.18694346  0.55952234     2.17500
O2          O  0.86904342  0.14709652  0.54037244    -0.51100
O3          O  0.95258822  0.19794389  0.56209404    -0.74300
O4          O  0.91842148  0.22834611  0.54119306    -0.81100
O5          O  0.83723440  0.09819447  0.58111669    -0.82800
O6          O  0.91678030  0.28502240  0.54265630    -0.78400
O7          O  0.87138170  0.11971481  0.56273880    -0.90100
O8          O  0.98164431  0.24080976  0.57833564    -0.76000
O9          O  0.92168691  0.25335012  0.56612123    -0.85500
O10         O  0.89631703  0.18534936  0.58168835    -0.85200
O11         O  0.84515065  0.21401428  0.55440424    -0.72000
O12         O  0.82191216  0.15183565  0.56858826    -0.84100
Zr13       Zr  0.82823656  0.24562153  0.59337197     2.26400
Zr14       Zr  0.88074844  0.28040652  0.56166164     2.06300
Zr15       Zr  0.83237102  0.15137215  0.59079563     2.10000
Zr16       Zr  0.93223939  0.25212602  0.58812841     1.78800
O17         O  0.76637987  0.09548547  0.59228132    -0.92900
O18         O  0.98704897  0.31672089  0.58319768    -0.40700
O19         O  0.86909006  0.21800866  0.59781539    -0.77300
O20         O  0.89245417  0.28142112  0.58402369    -0.96000
O21         O  0.81767319  0.24677294  0.57124247    -0.89300
O22         O  0.79142351  0.17881608  0.58671119    -0.92200
C23         C  0.98208678  0.21925843  0.56928105     1.01600
C24         C  0.85286109  0.09324663  0.57116771     1.14500
C25         C  0.92670093  0.26242143  0.53710654     1.05300
O26         O  0.93947319  0.34458412  0.56052437    -0.94300
O27         O  0.86715058  0.33039043  0.56878038    -0.90100
O28         O  0.84070349  0.31138508  0.58831848    -0.83200
C29         C  0.85312926  0.33573084  0.57900694     1.11900
O30         O  0.76204565  0.14355529  0.54470120    -0.96300
Zr31       Zr  0.78208452  0.18073923  0.56444792     1.88900
O32         O  0.75910917  0.22755713  0.59278811    -0.73000
O33         O  0.84637465  0.29214964  0.54455614    -0.52200
O34         O  0.76291965  0.21285289  0.54856789    -0.96900
O35         O  0.72663388  0.11468828  0.56702634    -0.54100
O36         O  0.73344626  0.19173404  0.57490624    -0.73500
C37         C  0.73084618  0.20896834  0.58490378     0.98900
O38         O  0.83052806  0.28796836  0.61062082    -0.62300
O39         O  0.85658792  0.12297188  0.60640578    -0.57100
O40         O  0.82601776  0.21907849  0.61465911    -0.93800
O41         O  0.81869945  0.15836877  0.61258558    -0.92200
O42         O  0.95325628  0.22483081  0.60505998    -0.92600
O43         O  0.95469410  0.29354878  0.60690399    -0.91300
C44         C  0.82105066  0.18663378  0.61923985     1.17700
H45         H  0.91050041  0.17185841  0.58358950     0.33700
H46         H  0.90596521  0.30804875  0.58713915     0.44500
H47         H  0.76696359  0.16453866  0.59128330     0.38000
H48         H  0.84158793  0.21337675  0.54529852     0.34500
H49         H  0.00992346  0.31731833  0.58728287     0.26300
H50         H  0.86584705  0.31792052  0.54104994     0.32200
H51         H  0.75977863  0.23282697  0.55327667     0.38200
H52         H  0.92867889  0.20322437  0.60857919     0.32600
H53         H  0.83681972  0.09472541  0.60661482     0.31500
H54         H  0.76635032  0.08213997  0.60022788     0.33200
H55         H  0.71869095  0.11319054  0.57598964     0.32100
H56         H  0.93060245  0.28573267  0.61183499     0.36100
H57         H  0.80704515  0.27192090  0.61585525     0.28900
H58         H  0.89426901  0.15382877  0.53635224     0.33100
H59         H  0.73520715  0.13835430  0.54298343     0.36000
H60         H  0.87991428  0.12415676  0.60249270     0.28600
H61         H  0.85304029  0.29266439  0.61599417     0.41400
H62         H  0.94654867  0.35292380  0.56944345     0.31500
H63         H  0.99156012  0.31593241  0.57400351     0.39100
H64         H  0.73799728  0.09731899  0.56651634     0.31000
H65         H  0.84286149  0.27312570  0.53784084     0.31000
H66         H  0.85710494  0.15816525  0.53466477     0.31300
Zr67       Zr  0.14989084  0.31651240  0.43989791     2.17500
O68         O  0.16482389  0.29289389  0.45926780    -0.51100
O69         O  0.08375531  0.26329517  0.43664597    -0.74300
O70         O  0.11378932  0.32161920  0.45753193    -0.81100
O71         O  0.19421835  0.27136291  0.41853042    -0.82800
O72         O  0.11562573  0.37996182  0.45561353    -0.78400
O73         O  0.16036292  0.26135348  0.43686350    -0.90100
O74         O  0.06272261  0.27720362  0.41842403    -0.76000
O75         O  0.11642781  0.34811901  0.43167469    -0.85500
O76         O  0.14610922  0.30647956  0.41760002    -0.85200
O77         O  0.18829253  0.38415556  0.44602466    -0.72000
O78         O  0.21640900  0.34506694  0.43303165    -0.84100
Zr79       Zr  0.21891126  0.43591522  0.40764625     2.26400
Zr80       Zr  0.15538016  0.41580490  0.43714273     2.06300
Zr81       Zr  0.21229486  0.33641176  0.41057812     2.10000
Zr82       Zr  0.11356198  0.33862107  0.40946664     1.78800
O83         O  0.27716514  0.34417841  0.41282413    -0.92900
O84         O  0.05737036  0.34840262  0.41020511    -0.40700
O85         O  0.17924655  0.36827226  0.40199989    -0.77300
O86         O  0.15187628  0.40717706  0.41457163    -0.96000
O87         O  0.22167806  0.44556211  0.43002725    -0.89300
O88         O  0.25240478  0.40425820  0.41592698    -0.92200
C89         C  0.05775965  0.25539202  0.42810292     1.01600
C90         C  0.17631145  0.25081266  0.42829890     1.14500
C91         C  0.10460444  0.34693226  0.46121283     1.05300
O92         O  0.09655887  0.42092168  0.43553280    -0.94300
O93         O  0.17283979  0.48017221  0.42840894    -0.90100
O94         O  0.20580589  0.48981991  0.40998703    -0.83200
C95         C  0.19022476  0.50079478  0.41852545     1.11900
O96         O  0.26771508  0.39193069  0.45838674    -0.96300
Zr97       Zr  0.25397841  0.41326381  0.43833208     1.88900
O98         O  0.28807941  0.48434352  0.41026587    -0.73000
O99         O  0.17932087  0.46001492  0.45524451    -0.52200
O100        O  0.26870319  0.45955916  0.45562925    -0.96900
O101        O  0.31094546  0.40473942  0.43781333    -0.54100
O102        O  0.30509397  0.47463228  0.42982316    -0.73500
C103        C  0.31242094  0.49421080  0.41949024     0.98900
O104        O  0.22745305  0.48073686  0.39046540    -0.62300
O105        O  0.19877483  0.29041828  0.39328425    -0.57100
O106        O  0.22591845  0.41388396  0.38658384    -0.93800
O107        O  0.23227110  0.36031657  0.38923213    -0.92200
O108        O  0.10251445  0.29333832  0.39215441    -0.92600
O109        O  0.09480348  0.35596897  0.38958984    -0.91300
C110        C  0.23193363  0.38685106  0.38229315     1.17700
H111        H  0.13193712  0.27901998  0.41541242     0.33700
H112        H  0.13972342  0.42069928  0.41073714     0.44500
H113        H  0.27822296  0.41456797  0.41233392     0.38000
H114        H  0.18887400  0.38635560  0.45515971     0.34500
H115        H  0.03814771  0.32740096  0.41576529     0.26300
H116        H  0.20388205  0.48290817  0.45226757     0.32200
H117        H  0.26938656  0.48263981  0.45165828     0.38200
H118        H  0.12901380  0.30004325  0.38930244     0.32600
H119        H  0.21721970  0.28059629  0.39453265     0.31500
H120        H  0.28651198  0.34592977  0.40402210     0.33200
H121        H  0.32314264  0.41491613  0.42945535     0.32100
H122        H  0.11939026  0.37824769  0.38634659     0.36100
H123        H  0.25134372  0.48589129  0.38583325     0.28900
H124        H  0.13972917  0.26999246  0.46187147     0.33100
H125        H  0.24262943  0.36870923  0.46082740     0.36000
H126        H  0.17255543  0.26779854  0.39506369     0.28600
H127        H  0.20543597  0.46573614  0.38455096     0.41400
H128        H  0.07509784  0.39532876  0.43849922     0.31500
H129        H  0.06638901  0.37272149  0.41516992     0.39100
H130        H  0.30006662  0.37607147  0.43720708     0.31000
H131        H  0.16075894  0.46986926  0.45604493     0.31000
H132        H  0.17049680  0.31317113  0.46576710     0.31300
Zr133      Zr  0.16354273  0.90962227  0.44020498     2.17500
O134        O  0.12270784  0.88640921  0.45906965    -0.51100
O135        O  0.17011463  0.97440325  0.43808854    -0.74300
O136        O  0.20104647  0.94612713  0.45865245    -0.81100
O137        O  0.07927997  0.86219523  0.41680619    -0.82800
O138        O  0.25913341  0.94730823  0.45791779    -0.78400
O139        O  0.09537520  0.89077909  0.43627878    -0.90100
O140        O  0.21517008  0.00618387  0.42269501    -0.76000
O141        O  0.23067061  0.94823646  0.43459371    -0.85500
O142        O  0.16462105  0.92176747  0.41807593    -0.85200
O143        O  0.19411576  0.87164757  0.44571034    -0.72000
O144        O  0.13247514  0.84630588  0.43026541    -0.84100
Zr145      Zr  0.23142404  0.85909813  0.40736129     2.26400
Zr146      Zr  0.26125063  0.91070750  0.43943366     2.06300
Zr147      Zr  0.13487585  0.85897679  0.40805245     2.10000
Zr148      Zr  0.23174186  0.96049310  0.41265983     1.78800
O149        O  0.07918718  0.79377239  0.40449998    -0.92900
O150        O  0.29382652  0.01806646  0.41826979    -0.40700
O151        O  0.20196319  0.89797775  0.40231219    -0.77300
O152        O  0.26297661  0.92287740  0.41721224    -0.96000
O153        O  0.23081670  0.84770001  0.42954749    -0.89300
O154        O  0.16426685  0.82035713  0.41293026    -0.92200
C155        C  0.19185925  0.00497404  0.43140030     1.01600
C156        C  0.07116814  0.87438500  0.42706083     1.14500
C157        C  0.23532709  0.95680247  0.46300271     1.05300
O158        O  0.32411539  0.97096047  0.44084331    -0.94300
O159        O  0.31384965  0.90128416  0.43084785    -0.90100
O160        O  0.29557533  0.86889060  0.41204533    -0.83200
C161        C  0.32025768  0.88577129  0.42101961     1.11900
O162        O  0.12376657  0.78791440  0.45419631    -0.96300
Zr163      Zr  0.16378434  0.80917326  0.43511736     1.88900
O164        O  0.21845084  0.79119081  0.40848837    -0.73000
O165        O  0.27573938  0.88149446  0.45746566    -0.52200
O166        O  0.19254430  0.78658096  0.45113328    -0.96900
O167        O  0.09939573  0.75298352  0.43080867    -0.54100
O168        O  0.17585347  0.76131582  0.42471143    -0.73500
C169        C  0.19694316  0.76120897  0.41550454     0.98900
O170        O  0.27750578  0.88737961  0.38984902    -0.62300
O171        O  0.11338094  0.88802100  0.39181903    -0.57100
O172        O  0.20322468  0.83968803  0.38628243    -0.93800
O173        O  0.14781112  0.84373516  0.38682906    -0.92200
O174        O  0.20477750  0.97818033  0.39474308    -0.92600
O175        O  0.27724194  0.98755668  0.39502702    -0.91300
C176        C  0.17319835  0.83813041  0.38098028     1.17700
H177        H  0.15044022  0.93516621  0.41607206     0.33700
H178        H  0.28985683  0.93756867  0.41439445     0.44500
H179        H  0.15165583  0.79616120  0.40818075     0.38000
H180        H  0.19276263  0.86758765  0.45476138     0.34500
H181        H  0.28975392  0.02551767  0.42685054     0.26300
H182        H  0.27326508  0.85690514  0.45410844     0.32200
H183        H  0.21623287  0.78886445  0.44711921     0.38200
H184        H  0.19766118  0.99714879  0.39817136     0.32600
H185        H  0.08518022  0.86914229  0.39065959     0.31500
H186        H  0.06656061  0.79638451  0.39674020     0.33200
H187        H  0.10128900  0.74402573  0.42221629     0.32100
H188        H  0.26823755  0.96568991  0.38890179     0.36100
H189        H  0.26770493  0.90226138  0.38505110     0.28900
H190        H  0.12478960  0.91015450  0.46302317     0.33100
H191        H  0.11704066  0.76037964  0.45553901     0.36000
H192        H  0.11425754  0.91103607  0.39591511     0.28600
H193        H  0.30202490  0.90846427  0.39359242     0.41400
H194        H  0.33577348  0.96867670  0.44888160     0.31500
H195        H  0.31210444  0.00808952  0.41961404     0.39100
H196        H  0.08210988  0.76425549  0.42972501     0.31000
H197        H  0.30412744  0.89867071  0.45895068     0.31000
H198        H  0.13666537  0.87798951  0.46494273     0.31300
Zr199      Zr  0.29195280  0.17412611  0.56358465     2.17500
O200        O  0.26795213  0.18937802  0.54435963    -0.51100
O201        O  0.23857196  0.10842302  0.56715099    -0.74300
O202        O  0.29512298  0.13619820  0.54591306    -0.81100
O203        O  0.25001957  0.22107843  0.58550939    -0.82800
O204        O  0.35631722  0.14419503  0.54561613    -0.78400
O205        O  0.23838427  0.18685528  0.56717154    -0.90100
O206        O  0.25646594  0.08159630  0.58303865    -0.76000
O207        O  0.32510094  0.14060734  0.57005465    -0.85500
O208        O  0.28289113  0.16517983  0.58585286    -0.85200
O209        O  0.35897070  0.21564712  0.55740723    -0.72000
O210        O  0.31961513  0.23884360  0.57223805    -0.84100
Zr211      Zr  0.41163484  0.23719898  0.59583219     2.26400
Zr212      Zr  0.39189287  0.18181433  0.56438409     2.06300
Zr213      Zr  0.31079239  0.22940711  0.59456569     2.10000
Zr214      Zr  0.31676126  0.13224044  0.59227429     1.78800
O215        O  0.31656712  0.29336488  0.59746919    -0.92900
O216        O  0.33017622  0.07907699  0.58856983    -0.40700
O217        O  0.34429959  0.19595842  0.60139031    -0.77300
O218        O  0.38442761  0.17240901  0.58695499    -0.96000
O219        O  0.42053340  0.24590944  0.57352250    -0.89300
O220        O  0.37863872  0.27135827  0.58946426    -0.92200
C221        C  0.23270557  0.08007253  0.57447521     1.01600
C222        C  0.22920904  0.20441952  0.57561608     1.14500
C223        C  0.32139684  0.12989572  0.54116667     1.05300
O224        O  0.39586345  0.12220339  0.56325083    -0.94300
O225        O  0.45591778  0.19553375  0.57177662    -0.90100
O226        O  0.46469067  0.22368098  0.59118966    -0.83200
C227        C  0.47572906  0.21000291  0.58198392     1.11900
O228        O  0.36302706  0.29881920  0.54897147    -0.96300
Zr229      Zr  0.38742244  0.27927508  0.56712773     1.88900
O230        O  0.46431657  0.30450653  0.59344240    -0.73000
O231        O  0.43667208  0.21458008  0.54689733    -0.52200
O232        O  0.43185042  0.29939446  0.54915249    -0.96900
O233        O  0.37873533  0.33528843  0.57124025    -0.54100
O234        O  0.45086684  0.32740714  0.57555804    -0.73500
C235        C  0.47290595  0.33105289  0.58504045     0.98900
O236        O  0.44574112  0.23553281  0.61490584    -0.62300
O237        O  0.25856025  0.19766164  0.61012051    -0.57100
O238        O  0.39246595  0.24922711  0.61678140    -0.93800
O239        O  0.33400917  0.24719473  0.61603346    -0.92200
O240        O  0.26901914  0.10873398  0.60933814    -0.92600
O241        O  0.33845281  0.11639094  0.61187629    -0.91300
C242        C  0.36402712  0.25130464  0.62203288     1.17700
H243        H  0.25553929  0.15013146  0.58800420     0.33700
H244        H  0.39832473  0.15966034  0.58995677     0.44500
H245        H  0.38918620  0.29627128  0.59379360     0.38000
H246        H  0.36071059  0.21845559  0.54825595     0.34500
H247        H  0.31040103  0.05697857  0.59367440     0.26300
H248        H  0.45840421  0.23865517  0.55067945     0.32200
H249        H  0.44378552  0.32824176  0.54880673     0.38200
H250        H  0.27085551  0.13273788  0.61298495     0.32600
H251        H  0.24988758  0.21685300  0.61177674     0.31500
H252        H  0.29016710  0.28760948  0.60009345     0.33200
H253        H  0.39453389  0.34798223  0.57890309     0.32100
H254        H  0.36705158  0.12796130  0.61089210     0.36100
H255        H  0.44427295  0.20971159  0.61480633     0.28900
H256        H  0.24742037  0.16376114  0.54103247     0.33100
H257        H  0.33439461  0.28078014  0.54908127     0.36000
H258        H  0.23636181  0.17593473  0.60557827     0.28600
H259        H  0.47367160  0.25491325  0.61349207     0.41400
H260        H  0.41631824  0.12786088  0.55685307     0.31500
H261        H  0.32214074  0.07103142  0.57967851     0.39100
H262        H  0.35129159  0.32367138  0.57409031     0.31000
H263        H  0.44820909  0.19788696  0.54502004     0.31000
H264        H  0.28968760  0.19848282  0.53821563     0.31300
Zr265      Zr  0.75293200  0.90056272  0.43888575     2.17500
O266        O  0.77909447  0.94099679  0.45778642    -0.51100
O267        O  0.80872291  0.89228135  0.43479730    -0.74300
O268        O  0.74980440  0.86134113  0.45699605    -0.81100
O269        O  0.78366984  0.99282092  0.41914574    -0.82800
O270        O  0.69161876  0.80450850  0.45597175    -0.78400
O271        O  0.80201755  0.96896040  0.43577791    -0.90100
O272        O  0.79100271  0.84931634  0.41839398    -0.76000
O273        O  0.72255034  0.83460811  0.43144861    -0.85500
O274        O  0.76093809  0.90423316  0.41653124    -0.85200
O275        O  0.68584244  0.87037123  0.44547480    -0.72000
O276        O  0.72181491  0.93556935  0.43163493    -0.84100
Zr277      Zr  0.63021395  0.84360063  0.40755917     2.26400
Zr278      Zr  0.65528020  0.80491451  0.43721018     2.06300
Zr279      Zr  0.72843271  0.93783265  0.40916135     2.10000
Zr280      Zr  0.72977937  0.83845065  0.40916073     1.78800
O281        O  0.71832692  0.99356550  0.40683680    -0.92900
O282        O  0.72036597  0.77255456  0.41091936    -0.40700
O283        O  0.69741678  0.87196777  0.40146622    -0.77300
O284        O  0.66145447  0.80751372  0.41455852    -0.96000
O285        O  0.62312923  0.83927976  0.43000061    -0.89300
O286        O  0.66133235  0.90935925  0.41506516    -0.92200
C287        C  0.81484257  0.87068428  0.42714497     1.01600
C288        C  0.80648782  0.99679587  0.42837042     1.14500
C289        C  0.72492968  0.82738775  0.46123347     1.05300
O290        O  0.65778416  0.74447190  0.43609898    -0.94300
O291        O  0.59258651  0.75380694  0.42908693    -0.90100
O292        O  0.57679760  0.77698838  0.41168062    -0.83200
C293        C  0.56957907  0.75017595  0.41989890     1.11900
O294        O  0.67517863  0.94113766  0.45740596    -0.96300
Zr295      Zr  0.65468129  0.90491174  0.43755616     1.88900
O296        O  0.58091488  0.86290282  0.41110656    -0.73000
O297        O  0.60825729  0.78169159  0.45449794    -0.52200
O298        O  0.60817498  0.87329078  0.45471943    -0.96900
O299        O  0.66704871  0.97182306  0.43596609    -0.54100
O300        O  0.59495446  0.89851712  0.42923670    -0.73500
C301        C  0.57374225  0.88220918  0.41947594     0.98900
O302        O  0.59299802  0.80963947  0.38863533    -0.62300
O303        O  0.78158892  0.96330638  0.39380313    -0.57100
O304        O  0.64819257  0.87464735  0.38663738    -0.93800
O305        O  0.70421844  0.93334828  0.38794126    -0.92200
O306        O  0.77698501  0.87171681  0.39230767    -0.92600
O307        O  0.71381160  0.80298565  0.38912800    -0.91300
C308        C  0.67545438  0.90661735  0.38170344     1.17700
H309        H  0.78828480  0.91825256  0.41425730     0.33700
H310        H  0.64804804  0.78144764  0.41101290     0.44500
H311        H  0.65041850  0.92405125  0.41133132     0.38000
H312        H  0.68437502  0.86973157  0.45465153     0.34500
H313        H  0.72857468  0.77101643  0.41966815     0.26300
H314        H  0.60918853  0.75889474  0.45802036     0.32200
H315        H  0.58496998  0.85127408  0.45065768     0.38200
H316        H  0.76646176  0.88603660  0.38752381     0.32600
H317        H  0.78721788  0.99029367  0.39204045     0.31500
H318        H  0.73273625  0.00695041  0.39904545     0.33200
H319        H  0.65466203  0.97269324  0.42790635     0.32100
H320        H  0.68490508  0.78905190  0.38868301     0.36100
H321        H  0.59382779  0.78497983  0.38812169     0.28900
H322        H  0.80150998  0.93801654  0.46042757     0.33100
H323        H  0.70350340  0.95037031  0.45798309     0.36000
H324        H  0.80485897  0.96689373  0.39850198     0.28600
H325        H  0.56541708  0.80151936  0.39051009     0.41400
H326        H  0.64052312  0.72798658  0.44302336     0.31500
H327        H  0.69170833  0.75473245  0.41089704     0.39100
H328        H  0.69545588  0.98792441  0.43432790     0.31000
H329        H  0.62033414  0.80214955  0.46111601     0.31000
H330        H  0.75907874  0.92779532  0.46444209     0.31300
Zr331      Zr  0.87706924  0.77148400  0.56276662     2.17500
O332        O  0.91126641  0.79567810  0.54270484    -0.51100
O333        O  0.86623816  0.82631435  0.56531898    -0.74300
O334        O  0.83658926  0.76334152  0.54432514    -0.81100
O335        O  0.96441065  0.80950556  0.58448874    -0.82800
O336        O  0.77845352  0.70668978  0.54589017    -0.78400
O337        O  0.94490167  0.82344511  0.56595751    -0.90100
O338        O  0.82690752  0.81291446  0.58245167    -0.76000
O339        O  0.81082845  0.74081523  0.56951364    -0.85500
O340        O  0.87841191  0.78148682  0.58507726    -0.85200
O341        O  0.84909132  0.70365915  0.55704103    -0.72000
O342        O  0.91238748  0.74196669  0.57153341    -0.84100
Zr343      Zr  0.81783554  0.65165306  0.59553263     2.26400
Zr344      Zr  0.78288208  0.67300315  0.56445012     2.06300
Zr345      Zr  0.91169421  0.75046984  0.59394064     2.10000
Zr346      Zr  0.81215535  0.75029005  0.59169188     1.78800
O347        O  0.97016371  0.74509365  0.59635981    -0.92900
O348        O  0.74754497  0.74115315  0.58730797    -0.40700
O349        O  0.84537698  0.71956881  0.60095256    -0.77300
O350        O  0.78233201  0.68146667  0.58695332    -0.96000
O351        O  0.81691595  0.64259808  0.57322559    -0.89300
O352        O  0.88441743  0.68268513  0.58890040    -0.92200
C353        C  0.84689378  0.83485083  0.57314522     1.01600
C354        C  0.97070439  0.83090266  0.57459674     1.14500
C355        C  0.80209641  0.73873823  0.54027915     1.05300
O356        O  0.71982357  0.66972687  0.56594709    -0.94300
O357        O  0.73429229  0.60741061  0.57055422    -0.90100
O358        O  0.75345406  0.59733228  0.58977164    -0.83200
C359        C  0.72932486  0.58650741  0.58040831     1.11900
O360        O  0.92567833  0.69592054  0.54810782    -0.96300
Zr361      Zr  0.88302272  0.67381092  0.56655300     1.88900
O362        O  0.83206923  0.59858419  0.59327123    -0.73000
O363        O  0.76556151  0.62896233  0.54635046    -0.52200
O364        O  0.85731520  0.62966150  0.54848018    -0.96900
O365        O  0.94688596  0.68052049  0.57071965    -0.54100
O366        O  0.86708694  0.61053786  0.57514410    -0.73500
C367        C  0.84944580  0.58939565  0.58483742     0.98900
O368        O  0.77809591  0.62046704  0.61419391    -0.62300
O369        O  0.93291890  0.80128367  0.61012310    -0.57100
O370        O  0.84850767  0.66461355  0.61658860    -0.93800
O371        O  0.90497473  0.72271030  0.61492434    -0.92200
O372        O  0.83989285  0.79585479  0.60937285    -0.92600
O373        O  0.77059068  0.73205820  0.61037017    -0.91300
C374        C  0.88029019  0.69273064  0.62132020     1.17700
H375        H  0.89198101  0.80901107  0.58717957     0.33700
H376        H  0.75583372  0.66809489  0.59004381     0.44500
H377        H  0.89828860  0.67179100  0.59322783     0.38000
H378        H  0.84945454  0.70124939  0.54792558     0.34500
H379        H  0.74897773  0.76574102  0.59019282     0.26300
H380        H  0.74040179  0.62565326  0.54325609     0.32200
H381        H  0.82869729  0.61479607  0.54982987     0.38200
H382        H  0.85247962  0.78476231  0.61478013     0.32600
H383        H  0.95985002  0.80768598  0.61233004     0.31500
H384        H  0.98844809  0.76850476  0.60132820     0.33200
H385        H  0.94755339  0.66019435  0.56538590     0.32100
H386        H  0.76607392  0.70577022  0.61267840     0.36100
H387        H  0.75349425  0.62090395  0.61288048     0.28900
H388        H  0.91980582  0.82395968  0.54258725     0.33100
H389        H  0.93682997  0.72468416  0.54799302     0.36000
H390        H  0.93619708  0.82482740  0.60566590     0.28600
H391        H  0.77060862  0.59250147  0.61356535     0.41400
H392        H  0.70676222  0.65839863  0.55776256     0.31500
H393        H  0.74610026  0.74202120  0.57796035     0.39100
H394        H  0.94554259  0.67105945  0.57948789     0.31000
H395        H  0.78467111  0.64436346  0.53966687     0.31000
H396        H  0.93563074  0.79448892  0.54348903     0.31300
Zr397      Zr  0.09112187  0.54981640  0.10898941     2.17500
O398        O  0.11605949  0.58888324  0.12824999    -0.51100
O399        O  0.14498257  0.53798045  0.10494232    -0.74300
O400        O  0.08296205  0.50814423  0.12707595    -0.81100
O401        O  0.13038402  0.63952962  0.08885590    -0.82800
O402        O  0.02541132  0.45069182  0.12526734    -0.78400
O403        O  0.14531433  0.61615360  0.10641160    -0.90100
O404        O  0.13238564  0.50267338  0.08685349    -0.76000
O405        O  0.05924886  0.48412814  0.10155189    -0.85500
O406        O  0.10041792  0.55353434  0.08666060    -0.85200
O407        O  0.02374914  0.52245362  0.11498013    -0.72000
O408        O  0.06261304  0.58717034  0.10118951    -0.84100
Zr409      Zr  0.97118044  0.49713803  0.07665316     2.26400
Zr410      Zr  0.99177873  0.45686458  0.10681685     2.06300
Zr411      Zr  0.07081448  0.58912515  0.07872963     2.10000
Zr412      Zr  0.06814317  0.48778212  0.07929333     1.78800
O413        O  0.06479707  0.64742591  0.07670799    -0.92900
O414        O  0.05893589  0.42333322  0.08430651    -0.40700
O415        O  0.03856490  0.52332922  0.07092634    -0.77300
O416        O  0.99994379  0.45949576  0.08429301    -0.96000
O417        O  0.96238480  0.49315832  0.09900652    -0.89300
O418        O  0.00348974  0.56305455  0.08408752    -0.92200
C419        C  0.15427889  0.52095310  0.09635708     1.01600
C420        C  0.15237987  0.64338769  0.09839804     1.14500
C421        C  0.05780584  0.47362391  0.13091525     1.05300
O422        O  0.98843689  0.39365666  0.10522132    -0.94300
O423        O  0.92768763  0.40853338  0.09894253    -0.90100
O424        O  0.91640175  0.43210848  0.08068136    -0.83200
C425        C  0.90677787  0.40587183  0.08926523     1.11900
O426        O  0.01489119  0.59472834  0.12643792    -0.96300
Zr427      Zr  0.99493985  0.55878371  0.10651221     1.88900
O428        O  0.92228703  0.51752580  0.07968782    -0.73000
O429        O  0.94708285  0.43872012  0.12468715    -0.52200
O430        O  0.94673054  0.52907130  0.12334060    -0.96900
O431        O  0.00801810  0.62584359  0.10433236    -0.54100
O432        O  0.93456010  0.55124438  0.09809962    -0.73500
C433        C  0.91375414  0.53549469  0.08820571     0.98900
O434        O  0.93221538  0.45184655  0.05985789    -0.62300
O435        O  0.12302854  0.61490148  0.06304410    -0.57100
O436        O  0.98669836  0.52731425  0.05556635    -0.93800
O437        O  0.04568372  0.58266893  0.05733160    -0.92200
O438        O  0.11024608  0.51277895  0.06077986    -0.92600
O439        O  0.04814344  0.44614410  0.06054399    -0.91300
C440        C  0.01575181  0.55823301  0.05084462     1.17700
H441        H  0.12785203  0.56702887  0.08452573     0.33700
H442        H  0.98598805  0.43330516  0.08082894     0.44500
H443        H  0.99330048  0.57821281  0.08011725     0.38000
H444        H  0.02163887  0.52182855  0.12415995     0.34500
H445        H  0.07999264  0.42204513  0.07964196     0.26300
H446        H  0.96164027  0.45884739  0.13123487     0.32200
H447        H  0.92295224  0.50827135  0.11912926     0.38200
H448        H  0.12930189  0.54039691  0.06285041     0.32600
H449        H  0.13218163  0.64328872  0.06263392     0.31500
H450        H  0.07305838  0.66056136  0.08505170     0.33200
H451        H  0.98711228  0.62659809  0.10926974     0.32100
H452        H  0.01982571  0.42781487  0.06167463     0.36100
H453        H  0.92054732  0.46497571  0.05501427     0.28900
H454        H  0.13559702  0.58256912  0.13169138     0.33100
H455        H  0.03747341  0.59236239  0.12932858     0.36000
H456        H  0.14491152  0.61333779  0.06702819     0.28600
H457        H  0.95133889  0.45068057  0.05409506     0.41400
H458        H  0.97287922  0.37874956  0.11266003     0.31500
H459        H  0.06649984  0.42485266  0.09332547     0.39100
H460        H  0.00166070  0.62811853  0.09541184     0.31000
H461        H  0.92644351  0.44422096  0.12180559     0.31000
H462        H  0.09409371  0.57721756  0.13433882     0.31300
Zr463      Zr  0.21750728  0.41919094  0.23181649     2.17500
O464        O  0.25878345  0.44411663  0.21310533    -0.51100
O465        O  0.20472362  0.47209328  0.23637533    -0.74300
O466        O  0.17969099  0.41802709  0.21360601    -0.81100
O467        O  0.30582414  0.45730899  0.25200473    -0.82800
O468        O  0.12083190  0.36235899  0.21536027    -0.78400
O469        O  0.28242401  0.47386953  0.23488322    -0.90100
O470        O  0.17360261  0.46131074  0.25526556    -0.76000
O471        O  0.15341664  0.39163204  0.24034876    -0.85500
O472        O  0.22554008  0.42626411  0.25421317    -0.85200
O473        O  0.18408356  0.35238351  0.22473675    -0.72000
O474        O  0.25208000  0.38559866  0.23745194    -0.84100
Zr475      Zr  0.16115243  0.29610230  0.26221840     2.26400
Zr476      Zr  0.12026052  0.32473514  0.23387589     2.06300
Zr477      Zr  0.25871796  0.39178010  0.25994338     2.10000
Zr478      Zr  0.16137109  0.39775185  0.26267891     1.78800
O479        O  0.30995786  0.37536582  0.25698049    -0.92900
O480        O  0.09711909  0.39214627  0.26159332    -0.40700
O481        O  0.19442400  0.36345441  0.26860736    -0.77300
O482        O  0.12645999  0.32989317  0.25657132    -0.96000
O483        O  0.15261739  0.28940929  0.23986050    -0.89300
O484        O  0.22566103  0.32402573  0.25372544    -0.92200
C485        C  0.18910673  0.48183599  0.24528072     1.01600
C486        C  0.30901917  0.48111184  0.24310927     1.14500
C487        C  0.14488501  0.39452832  0.20971878     1.05300
O488        O  0.06231141  0.33102881  0.23625525    -0.94300
O489        O  0.06765055  0.26272368  0.24172740    -0.90100
O490        O  0.09136423  0.24890910  0.25939497    -0.83200
C491        C  0.06391150  0.24118064  0.25133322     1.11900
O492        O  0.25840221  0.34295263  0.21268869    -0.96300
Zr493      Zr  0.21659555  0.31781665  0.23125685     1.88900
O494        O  0.17335893  0.24300245  0.25662545    -0.73000
O495        O  0.09393384  0.28133342  0.21561421    -0.52200
O496        O  0.18449090  0.28137007  0.21209392    -0.96900
O497        O  0.27504675  0.31184700  0.23259397    -0.54100
O498        O  0.19276603  0.24970587  0.23614923    -0.73500
C499        C  0.18112786  0.23024958  0.24646311     0.98900
O500        O  0.13338328  0.25358679  0.28062967    -0.62300
O501        O  0.30207176  0.43433513  0.27655920    -0.57100
O502        O  0.19211528  0.31436888  0.28326133    -0.93800
O503        O  0.25156186  0.36940730  0.28181195    -0.92200
O504        O  0.19557111  0.44404736  0.27974778    -0.92600
O505        O  0.13022257  0.37571777  0.28328780    -0.91300
C506        C  0.22432852  0.34137266  0.28820681     1.17700
H507        H  0.24022511  0.45341513  0.25674778     0.33700
H508        H  0.10105453  0.31772488  0.26055038     0.44500
H509        H  0.23906942  0.31080395  0.25693887     0.38000
H510        H  0.18223807  0.35135308  0.21557244     0.34500
H511        H  0.09788759  0.41064843  0.26808758     0.26300
H512        H  0.08904910  0.25548711  0.21862597     0.32200
H513        H  0.15821566  0.26086459  0.21489672     0.38200
H514        H  0.21317596  0.43546053  0.28339430     0.32600
H515        H  0.32898078  0.44402425  0.27342335     0.31500
H516        H  0.32973438  0.39691756  0.25170336     0.33200
H517        H  0.27173123  0.29613907  0.24028937     0.32100
H518        H  0.14105583  0.35977669  0.28676121     0.36100
H519        H  0.11059858  0.25604096  0.28319789     0.28900
H520        H  0.25615037  0.46655759  0.21021870     0.33100
H521        H  0.25333240  0.36337896  0.20927152     0.36000
H522        H  0.29866495  0.45757034  0.27663513     0.28600
H523        H  0.12208991  0.22649360  0.27737301     0.41400
H524        H  0.05272053  0.32162915  0.24492858     0.31500
H525        H  0.07867851  0.36587861  0.26501325     0.39100
H526        H  0.29644549  0.33848020  0.23472352     0.31000
H527        H  0.06755825  0.27791439  0.21433868     0.31000
H528        H  0.24557903  0.42378686  0.20650805     0.31300
Zr529      Zr  0.62742381  0.82891991  0.22947505     2.17500
O530        O  0.60327247  0.84597195  0.21067018    -0.51100
O531        O  0.57145520  0.76405427  0.23295618    -0.74300
O532        O  0.63405553  0.79678918  0.21069456    -0.81100
O533        O  0.58538651  0.87515518  0.25164221    -0.82800
O534        O  0.69216427  0.79831392  0.21257634    -0.78400
O535        O  0.57378032  0.84084196  0.23331897    -0.90100
O536        O  0.58649437  0.73940532  0.25016547    -0.76000
O537        O  0.65825522  0.79371846  0.23677992    -0.85500
O538        O  0.61816181  0.82274204  0.25178910    -0.85200
O539        O  0.69497246  0.86821739  0.22361175    -0.72000
O540        O  0.65692480  0.89466972  0.23744690    -0.84100
Zr541      Zr  0.74703644  0.89229668  0.26211153     2.26400
Zr542      Zr  0.72589617  0.83362841  0.23159722     2.06300
Zr543      Zr  0.64847639  0.88782783  0.25984422     2.10000
Zr544      Zr  0.64896515  0.78799181  0.25904754     1.78800
O545        O  0.65419102  0.95222033  0.25992210    -0.92900
O546        O  0.65694013  0.73108107  0.25606695    -0.40700
O547        O  0.67924724  0.85281911  0.26769518    -0.77300
O548        O  0.71715810  0.82637933  0.25404678    -0.96000
O549        O  0.75625187  0.89864167  0.23978408    -0.89300
O550        O  0.71621552  0.92757315  0.25474251    -0.92200
C551        C  0.56358544  0.73702847  0.24112957     1.01600
C552        C  0.56421806  0.85758379  0.24190930     1.14500
C553        C  0.66005109  0.78883441  0.20674298     1.05300
O554        O  0.72977836  0.77385992  0.23188291    -0.94300
O555        O  0.79001866  0.84982917  0.23949608    -0.90100
O556        O  0.80164521  0.88102437  0.25847189    -0.83200
C557        C  0.81130360  0.86607426  0.24932685     1.11900
O558        O  0.70212970  0.94943272  0.21313344    -0.96300
Zr559      Zr  0.72497242  0.93289463  0.23234812     1.88900
O560        O  0.79863655  0.96002378  0.25902477    -0.73000
O561        O  0.77144360  0.86163276  0.21398120    -0.52200
O562        O  0.77033375  0.94896543  0.21478153    -0.96900
O563        O  0.71735314  0.99009706  0.23511680    -0.54100
O564        O  0.78874644  0.98156329  0.24018363    -0.73500
C565        C  0.80912021  0.98560729  0.25013038     0.98900
O566        O  0.78052461  0.88040908  0.27947580    -0.62300
O567        O  0.60045782  0.86413492  0.27687067    -0.57100
O568        O  0.73411408  0.91196737  0.28272345    -0.93800
O569        O  0.67649842  0.91090291  0.28053117    -0.92200
O570        O  0.60156590  0.77036288  0.27607117    -0.92600
O571        O  0.66880201  0.76951561  0.27851528    -0.91300
C572        C  0.70592444  0.91584962  0.28713158     1.17700
H573        H  0.59074276  0.80888989  0.25399944     0.33700
H574        H  0.73049097  0.81348579  0.25741848     0.44500
H575        H  0.72717936  0.95287810  0.25878344     0.38000
H576        H  0.69721478  0.87023119  0.21446766     0.34500
H577        H  0.63343392  0.70912696  0.25999314     0.26300
H578        H  0.77424666  0.83967261  0.21065937     0.32200
H579        H  0.78082181  0.97726335  0.21326598     0.38200
H580        H  0.61158982  0.79441105  0.28127037     0.32600
H581        H  0.59149385  0.88346982  0.27744225     0.31500
H582        H  0.64683490  0.95545982  0.25122219     0.33200
H583        H  0.73855160  0.01082892  0.22998070     0.32100
H584        H  0.69699194  0.78884504  0.27939743     0.36100
H585        H  0.79743126  0.90635372  0.28340220     0.28900
H586        H  0.58226579  0.82071651  0.20729221     0.33100
H587        H  0.67325702  0.93394383  0.21365858     0.36000
H588        H  0.57768029  0.83998558  0.27356029     0.28600
H589        H  0.76022315  0.86505787  0.28586151     0.41400
H590        H  0.73263327  0.76917682  0.24093385     0.31500
H591        H  0.65322196  0.72557045  0.24686287     0.39100
H592        H  0.72519179  0.99859144  0.24398286     0.31000
H593        H  0.75692792  0.86670102  0.20729315     0.31000
H594        H  0.62466185  0.85528187  0.20438603     0.31300
Zr595      Zr  0.51309361  0.57401300  0.10754266     2.17500
O596        O  0.47542121  0.55909264  0.12706104    -0.51100
O597        O  0.52549716  0.63992638  0.10459983    -0.74300
O598        O  0.55643252  0.60992719  0.12484325    -0.81100
O599        O  0.42188484  0.52296550  0.08816936    -0.82800
O600        O  0.61320563  0.60866265  0.12351856    -0.78400
O601        O  0.44800161  0.56504161  0.10479211    -0.90100
O602        O  0.56015081  0.66215345  0.08636337    -0.76000
O603        O  0.57859746  0.60745540  0.10004728    -0.85500
O604        O  0.50864216  0.57940943  0.08522558    -0.85200
O605        O  0.54061638  0.53422457  0.11369208    -0.72000
O606        O  0.47477952  0.50798638  0.10007414    -0.84100
Zr607      Zr  0.56435046  0.50681041  0.07514272     2.26400
Zr608      Zr  0.60581564  0.56718845  0.10536084     2.06300
Zr609      Zr  0.47170133  0.51381784  0.07766792     2.10000
Zr610      Zr  0.57421462  0.61274891  0.07788433     1.78800
O611        O  0.41361074  0.44928581  0.07606216    -0.92900
O612        O  0.63910366  0.66712573  0.08284837    -0.40700
O613        O  0.53714494  0.54748764  0.06952639    -0.77300
O614        O  0.60278327  0.57311811  0.08284938    -0.96000
O615        O  0.56892245  0.50156759  0.09752512    -0.89300
O616        O  0.49886825  0.47315119  0.08291045    -0.92200
C617        C  0.54266371  0.66608556  0.09606826     1.01600
C618        C  0.41965076  0.54338462  0.09730910     1.14500
C619        C  0.59075512  0.61932593  0.12882792     1.05300
O620        O  0.67048260  0.62513380  0.10413870    -0.94300
O621        O  0.65235641  0.54958283  0.09699487    -0.90100
O622        O  0.63233662  0.52232636  0.07747662    -0.83200
C623        C  0.65718326  0.53534968  0.08663273     1.11900
O624        O  0.46439991  0.45385116  0.12447241    -0.96300
Zr625      Zr  0.50376375  0.46909395  0.10529879     1.88900
O626        O  0.54678906  0.43839067  0.07815710    -0.73000
O627        O  0.62166623  0.54054532  0.12379617    -0.52200
O628        O  0.53134943  0.45009312  0.12273071    -0.96900
O629        O  0.43854317  0.41275937  0.10220909    -0.54100
O630        O  0.51726035  0.41978924  0.09730654    -0.73500
C631        C  0.53199981  0.41386278  0.08732197     0.98900
O632        O  0.60265885  0.50341046  0.05758980    -0.62300
O633        O  0.44547377  0.54163062  0.06254743    -0.57100
O634        O  0.53057804  0.49327904  0.05465095    -0.93800
O635        O  0.47180270  0.49006593  0.05655854    -0.92200
O636        O  0.55504954  0.63879551  0.06010979    -0.92600
O637        O  0.61224323  0.62514079  0.05855823    -0.91300
C638        C  0.49787269  0.48759883  0.05009078     1.17700
H639        H  0.49549232  0.59382943  0.08314129     0.33700
H640        H  0.62868531  0.58542150  0.07929149     0.44500
H641        H  0.48380869  0.44757467  0.07902887     0.38000
H642        H  0.54144365  0.53308750  0.12281464     0.34500
H643        H  0.65731736  0.65753925  0.08079533     0.26300
H644        H  0.62108164  0.51659294  0.12065334     0.32200
H645        H  0.54410999  0.47336509  0.12831584     0.38200
H646        H  0.52642972  0.62132502  0.05939174     0.32600
H647        H  0.44504255  0.56343812  0.06705077     0.31500
H648        H  0.39801455  0.45188986  0.06917365     0.33200
H649        H  0.44059028  0.39884720  0.09470121     0.32100
H650        H  0.60121564  0.59917930  0.05442265     0.36100
H651        H  0.58618865  0.47749079  0.05357764     0.28900
H652        H  0.48122222  0.58484285  0.13048888     0.33100
H653        H  0.45631176  0.42632918  0.12654785     0.36000
H654        H  0.46622785  0.55472979  0.05610532     0.28600
H655        H  0.60439068  0.52277674  0.05127107     0.41400
H656        H  0.68472686  0.62323738  0.11158420     0.31500
H657        H  0.64414100  0.68702254  0.07627900     0.39100
H658        H  0.42243273  0.42406976  0.09932321     0.31000
H659        H  0.64966145  0.55917064  0.12547064     0.31000
H660        H  0.48824926  0.54960074  0.13301543     0.31300
Zr661      Zr  0.48933216  0.97061626  0.10872600     2.17500
O662        O  0.49803772  0.94214136  0.12811205    -0.51100
O663        O  0.42474181  0.91557643  0.10423538    -0.74300
O664        O  0.45319433  0.97771075  0.12626653    -0.81100
O665        O  0.54757090  0.93681690  0.08858413    -0.82800
O666        O  0.45062810  0.03384728  0.12425213    -0.78400
O667        O  0.50931253  0.92135323  0.10609848    -0.90100
O668        O  0.40103168  0.92921445  0.08655511    -0.76000
O669        O  0.45480638  0.00153292  0.10100734    -0.85500
O670        O  0.48544979  0.96198090  0.08637206    -0.85200
O671        O  0.52710030  0.03806967  0.11518593    -0.72000
O672        O  0.55556202  0.00124117  0.10148734    -0.84100
Zr673      Zr  0.55622470  0.09210534  0.07706739     2.26400
Zr674      Zr  0.49308398  0.06922204  0.10661441     2.06300
Zr675      Zr  0.55144524  0.99396359  0.07895988     2.10000
Zr676      Zr  0.45096704  0.99296683  0.07877218     1.78800
O677        O  0.61790817  0.00556481  0.07765003    -0.92900
O678        O  0.39355013  0.99998683  0.08166697    -0.40700
O679        O  0.51672624  0.02465391  0.07116791    -0.77300
O680        O  0.48894682  0.06165492  0.08403314    -0.96000
O681        O  0.55928392  0.10044698  0.09943612    -0.89300
O682        O  0.59074000  0.06122698  0.08477791    -0.92200
C683        C  0.39805540  0.90684112  0.09583370     1.01600
C684        C  0.53053240  0.91521356  0.09818902     1.14500
C685        C  0.44172060  0.00154666  0.12983707     1.05300
O686        O  0.43369896  0.07353579  0.10605477    -0.94300
O687        O  0.50794392  0.13305114  0.09865603    -0.90100
O688        O  0.54605060  0.14715941  0.08116967    -0.83200
C689        C  0.52779259  0.15564901  0.08947351     1.11900
O690        O  0.60827861  0.04737422  0.12698391    -0.96300
Zr691      Zr  0.59287422  0.06884675  0.10726749     1.88900
O692        O  0.62522518  0.14138785  0.08049246    -0.73000
O693        O  0.52034516  0.11311637  0.12473342    -0.52200
O694        O  0.60779198  0.11554914  0.12443867    -0.96900
O695        O  0.64839142  0.05812394  0.10587853    -0.54100
O696        O  0.64555158  0.13023042  0.09931240    -0.73500
C697        C  0.65120154  0.15050617  0.08924750     0.98900
O698        O  0.55655283  0.12713850  0.05796115    -0.62300
O699        O  0.52793338  0.94149123  0.06328386    -0.57100
O700        O  0.56808112  0.07358967  0.05612028    -0.93800
O701        O  0.56807499  0.01610914  0.05730869    -0.92200
O702        O  0.43604834  0.94682120  0.06145096    -0.92600
O703        O  0.43362675  0.01308242  0.05915507    -0.91300
C704        C  0.57086535  0.04529716  0.05108905     1.17700
H705        H  0.47216786  0.93443554  0.08410028     0.33700
H706        H  0.47639007  0.07524776  0.08037713     0.44500
H707        H  0.61670846  0.07225248  0.08105273     0.38000
H708        H  0.52773383  0.03975289  0.12430547     0.34500
H709        H  0.37248532  0.97781890  0.07689592     0.26300
H710        H  0.49915541  0.11792234  0.12749057     0.32200
H711        H  0.60812777  0.13841895  0.12042830     0.38200
H712        H  0.46188109  0.95325556  0.05801040     0.32600
H713        H  0.54771029  0.93306505  0.06319487     0.31500
H714        H  0.61797963  0.99123571  0.06995682     0.33200
H715        H  0.66334686  0.07322944  0.09838134     0.32100
H716        H  0.45892541  0.02959258  0.05484441     0.36100
H717        H  0.53153702  0.12725815  0.05797210     0.28900
H718        H  0.47128751  0.92342707  0.13108279     0.33100
H719        H  0.58279829  0.02624182  0.13013123     0.36000
H720        H  0.50441183  0.91917687  0.06705755     0.28600
H721        H  0.57710622  0.15475482  0.05929203     0.41400
H722        H  0.42515784  0.06874910  0.09709297     0.31500
H723        H  0.38624262  0.99334745  0.09067029     0.39100
H724        H  0.63692497  0.03038889  0.10328039     0.31000
H725        H  0.52224983  0.09696083  0.13156909     0.31000
H726        H  0.50855997  0.96364255  0.13441634     0.31300
Zr727      Zr  0.21701255  0.82679883  0.22741474     2.17500
O728        O  0.20184859  0.78682419  0.20834283    -0.51100
O729        O  0.28393854  0.84122768  0.23062556    -0.74300
O730        O  0.25298973  0.86618089  0.20943923    -0.81100
O731        O  0.16700396  0.73783300  0.24813685    -0.82800
O732        O  0.25253142  0.92326727  0.21114542    -0.78400
O733        O  0.20573401  0.76130322  0.23076845    -0.90100
O734        O  0.31040583  0.88354074  0.24709135    -0.76000
O735        O  0.25190238  0.89261761  0.23467130    -0.85500
O736        O  0.22318267  0.82337152  0.24971009    -0.85200
O737        O  0.17744784  0.85475157  0.22132964    -0.72000
O738        O  0.15109232  0.79026702  0.23512374    -0.84100
Zr739      Zr  0.15284125  0.88289190  0.25957814     2.26400
Zr740      Zr  0.21260491  0.92053423  0.22918940     2.06300
Zr741      Zr  0.15766681  0.78866200  0.25753308     2.10000
Zr742      Zr  0.25771633  0.88944145  0.25688520     1.78800
O743        O  0.09076784  0.73421542  0.25856166    -0.92900
O744        O  0.31199907  0.95633493  0.25521846    -0.40700
O745        O  0.19260410  0.85481185  0.26492103    -0.77300
O746        O  0.21912689  0.91940635  0.25179212    -0.96000
O747        O  0.14715438  0.88578245  0.23719695    -0.89300
O748        O  0.11740008  0.81651236  0.25249878    -0.92200
C749        C  0.31271782  0.86338939  0.23792006     1.01600
C750        C  0.18601035  0.73436391  0.23887509     1.14500
C751        C  0.26317716  0.90086340  0.20569274     1.05300
O752        O  0.27222264  0.98401308  0.23021637    -0.94300
O753        O  0.19996761  0.97137550  0.23663568    -0.90100
O754        O  0.16826574  0.95068164  0.25546425    -0.83200
C755        C  0.18401748  0.97618012  0.24653586     1.11900
O756        O  0.09526604  0.77958129  0.21097954    -0.96300
Zr757      Zr  0.11237320  0.81976044  0.23004169     1.88900
O758        O  0.08519427  0.86759138  0.25606568    -0.73000
O759        O  0.18657321  0.93664247  0.21067793    -0.52200
O760        O  0.09308533  0.84631373  0.21241191    -0.96900
O761        O  0.05636425  0.75459825  0.23358535    -0.54100
O762        O  0.06201214  0.83268714  0.23787279    -0.73500
C763        C  0.05864478  0.85061280  0.24751280     0.98900
O764        O  0.14534944  0.91376541  0.27856812    -0.62300
O765        O  0.17704757  0.75594824  0.27311376    -0.57100
O766        O  0.14666841  0.85352025  0.28075944    -0.93800
O767        O  0.14648480  0.79599259  0.27956350    -0.92200
O768        O  0.27490199  0.85656767  0.27307068    -0.92600
O769        O  0.27399371  0.92369467  0.27712796    -0.91300
C770        C  0.14507587  0.82293495  0.28589718     1.17700
H771        H  0.23722265  0.80987666  0.25185409     0.33700
H772        H  0.23216964  0.94576194  0.25516371     0.44500
H773        H  0.09220829  0.80244424  0.25659552     0.38000
H774        H  0.17591950  0.85512509  0.21220828     0.34500
H775        H  0.33446244  0.95564065  0.25911409     0.26300
H776        H  0.16219544  0.93527629  0.21368762     0.32200
H777        H  0.11683546  0.86042177  0.20713749     0.38200
H778        H  0.30382923  0.87020179  0.27298087     0.32600
H779        H  0.15771211  0.72767116  0.27235165     0.31500
H780        H  0.08765776  0.71864035  0.25084012     0.33200
H781        H  0.03626333  0.75243799  0.22750309     0.32100
H782        H  0.24876487  0.91977998  0.28035742     0.36100
H783        H  0.17071754  0.93818908  0.27971669     0.28900
H784        H  0.22718352  0.79013910  0.20547731     0.33100
H785        H  0.12059684  0.78461702  0.20747670     0.36000
H786        H  0.20193677  0.75871460  0.27000105     0.28600
H787        H  0.12663619  0.92251776  0.27623068     0.41400
H788        H  0.27396227  0.99604463  0.22183542     0.31500
H789        H  0.31821434  0.96012600  0.24606515     0.39100
H790        H  0.04585584  0.75591509  0.24196043     0.31000
H791        H  0.20480725  0.96489854  0.20925004     0.31000
H792        H  0.19457012  0.80017946  0.20184879     0.31300
Zr793      Zr  0.82159851  0.64372022  0.77401306     2.17500
O794        O  0.83370557  0.61427060  0.79248306    -0.51100
O795        O  0.75630662  0.58842093  0.77087966    -0.74300
O796        O  0.78908235  0.64904887  0.79282387    -0.81100
O797        O  0.88109038  0.61263660  0.75322708    -0.82800
O798        O  0.78481342  0.70428959  0.79091338    -0.78400
O799        O  0.84445293  0.59693901  0.77109631    -0.90100
O800        O  0.73109582  0.60302546  0.75379052    -0.76000
O801        O  0.78525680  0.67342201  0.76679646    -0.85500
O802        O  0.81599424  0.63491472  0.75162341    -0.85200
O803        O  0.85818682  0.71114222  0.78050567    -0.72000
O804        O  0.88716311  0.67599355  0.76623178    -0.84100
Zr805      Zr  0.88332395  0.76519623  0.74204398     2.26400
Zr806      Zr  0.82256705  0.74107914  0.77246644     2.06300
Zr807      Zr  0.88162060  0.66836717  0.74376459     2.10000
Zr808      Zr  0.78008479  0.66505876  0.74453812     1.78800
O809        O  0.94786858  0.67914484  0.74264273    -0.92900
O810        O  0.72236292  0.67177036  0.74710661    -0.40700
O811        O  0.84511514  0.69754412  0.73616780    -0.77300
O812        O  0.81684014  0.73363489  0.74981330    -0.96000
O813        O  0.88788574  0.77358715  0.76444152    -0.89300
O814        O  0.91957843  0.73588164  0.74954809    -0.92200
C815        C  0.72858966  0.58047607  0.76300034     1.01600
C816        C  0.86591592  0.59160072  0.76308175     1.14500
C817        C  0.77760387  0.67253900  0.79665145     1.05300
O818        O  0.76179466  0.74274318  0.77157054    -0.94300
O819        O  0.83776682  0.80627005  0.76568217    -0.90100
O820        O  0.86648615  0.81616216  0.74632224    -0.83200
C821        C  0.85250587  0.82654423  0.75559035     1.11900
O822        O  0.94037241  0.72180615  0.79133042    -0.96300
Zr823      Zr  0.92300139  0.74354867  0.77205668     1.88900
O824        O  0.95099266  0.81696889  0.74568224    -0.73000
O825        O  0.84853639  0.78359946  0.79092214    -0.52200
O826        O  0.93352276  0.78794014  0.78957885    -0.96900
O827        O  0.98153883  0.73807060  0.77017387    -0.54100
O828        O  0.97172519  0.80746846  0.76472871    -0.73500
C829        C  0.97627237  0.82750697  0.75469416     0.98900
O830        O  0.88665155  0.80245054  0.72315460    -0.62300
O831        O  0.85606873  0.61616012  0.72797100    -0.57100
O832        O  0.89720744  0.74732905  0.72102644    -0.93800
O833        O  0.90185692  0.69240289  0.72250845    -0.92200
O834        O  0.76297062  0.61781406  0.72741062    -0.92600
O835        O  0.76301018  0.68545722  0.72489829    -0.91300
C836        C  0.90328952  0.72073177  0.71616242     1.17700
H837        H  0.80286171  0.60740605  0.74940128     0.33700
H838        H  0.80343758  0.74651365  0.74644239     0.44500
H839        H  0.94554298  0.74775415  0.74567211     0.38000
H840        H  0.85968997  0.71295379  0.78960604     0.34500
H841        H  0.71611526  0.66733452  0.75624746     0.26300
H842        H  0.87179978  0.80758405  0.78778329     0.32200
H843        H  0.96164671  0.79992994  0.79164594     0.38200
H844        H  0.78838661  0.62338685  0.72382717     0.32600
H845        H  0.87701387  0.60958184  0.72687263     0.31500
H846        H  0.95168414  0.67481425  0.73364686     0.33200
H847        H  0.99305140  0.75008318  0.76189991     0.32100
H848        H  0.78800238  0.70764289  0.72184861     0.36100
H849        H  0.86080399  0.80066390  0.72245316     0.28900
H850        H  0.80751673  0.59382344  0.79537144     0.33100
H851        H  0.92367323  0.69292248  0.79119718     0.36000
H852        H  0.83472282  0.59298602  0.73223781     0.28600
H853        H  0.90521798  0.83020505  0.72525231     0.41400
H854        H  0.76164867  0.75620918  0.77947254     0.31500
H855        H  0.73168790  0.69997601  0.74585823     0.39100
H856        H  0.97160885  0.70974091  0.76890870     0.31000
H857        H  0.82915090  0.79188268  0.79274081     0.31000
H858        H  0.84354722  0.63468978  0.79915034     0.31300
Zr859      Zr  0.56698328  0.51762114  0.89790940     2.17500
O860        O  0.55075744  0.48016081  0.87826403    -0.51100
O861        O  0.63185887  0.52577594  0.90037488    -0.74300
O862        O  0.60290511  0.56059430  0.88031222    -0.81100
O863        O  0.51152125  0.42650443  0.91866455    -0.82800
O864        O  0.60396868  0.61860575  0.88164052    -0.78400
O865        O  0.54865149  0.44887661  0.90087150    -0.90100
O866        O  0.65726920  0.56195329  0.91825040    -0.76000
O867        O  0.60393221  0.58329546  0.90524136    -0.85500
O868        O  0.57441382  0.51361663  0.92015605    -0.85200
O869        O  0.52928434  0.54825123  0.89249090    -0.72000
O870        O  0.50191241  0.48372663  0.90632034    -0.84100
Zr871      Zr  0.50838580  0.57638284  0.93135584     2.26400
Zr872      Zr  0.56627836  0.61383417  0.90053956     2.06300
Zr873      Zr  0.50978077  0.48102224  0.92864708     2.10000
Zr874      Zr  0.61121535  0.57946451  0.92734039     1.78800
O875        O  0.44655079  0.42163771  0.93099529    -0.92900
O876        O  0.66771421  0.64310930  0.92250085    -0.40700
O877        O  0.54696309  0.54657177  0.93646956    -0.77300
O878        O  0.57385047  0.61088743  0.92293173    -0.96000
O879        O  0.50149809  0.58068429  0.90904059    -0.89300
O880        O  0.47119303  0.51063247  0.92390929    -0.92200
C881        C  0.65911525  0.54278410  0.90864872     1.01600
C882        C  0.52792833  0.42164967  0.90889531     1.14500
C883        C  0.61302830  0.59509401  0.87616525     1.05300
O884        O  0.62713052  0.67584953  0.90264855    -0.94300
O885        O  0.55072272  0.66191930  0.90895114    -0.90100
O886        O  0.52115614  0.64247021  0.92814347    -0.83200
C887        C  0.53558683  0.66708789  0.91903566     1.11900
O888        O  0.44496415  0.47495041  0.88256678    -0.96300
Zr889      Zr  0.46501493  0.51523183  0.90162771     1.88900
O890        O  0.44164876  0.56464411  0.92907505    -0.73000
O891        O  0.54297391  0.63415291  0.88228699    -0.52200
O892        O  0.44842207  0.54531516  0.88437314    -0.96900
O893        O  0.40753641  0.45065422  0.90441267    -0.54100
O894        O  0.41746318  0.52994836  0.91087039    -0.73500
C895        C  0.41455797  0.54748752  0.92071861     0.98900
O896        O  0.52459458  0.62167638  0.94900765    -0.62300
O897        O  0.53979302  0.45859688  0.94426793    -0.57100
O898        O  0.48755307  0.54297754  0.95183691    -0.93800
O899        O  0.48817268  0.48616145  0.94959681    -0.92200
O900        O  0.63122883  0.55463551  0.94525332    -0.92600
O901        O  0.63329284  0.62172001  0.94593905    -0.91300
C902        C  0.48313091  0.51058319  0.95621804     1.17700
H903        H  0.58751320  0.49901744  0.92206012     0.33700
H904        H  0.58763982  0.63716854  0.92639218     0.44500
H905        H  0.44583719  0.49675156  0.92805681     0.38000
H906        H  0.52700752  0.54889747  0.88340088     0.34500
H907        H  0.69005396  0.64253852  0.92655015     0.26300
H908        H  0.51738157  0.63060141  0.88495273     0.32200
H909        H  0.41958811  0.52957678  0.88366880     0.38200
H910        H  0.61572252  0.52578885  0.94442994     0.32600
H911        H  0.51806889  0.43327817  0.94731279     0.31500
H912        H  0.42910223  0.43030938  0.93467815     0.33200
H913        H  0.39378143  0.45314378  0.91187405     0.32100
H914        H  0.60910338  0.61427768  0.95077137     0.36100
H915        H  0.49970319  0.61314384  0.95354391     0.28900
H916        H  0.57605364  0.48442892  0.87496926     0.33100
H917        H  0.46663032  0.46978130  0.88087855     0.36000
H918        H  0.55665005  0.45141582  0.93937583     0.28600
H919        H  0.54086289  0.61598607  0.95479701     0.41400
H920        H  0.62550608  0.69293745  0.89609141     0.31500
H921        H  0.67215042  0.64235876  0.91330266     0.39100
H922        H  0.41804496  0.43388830  0.90736566     0.31000
H923        H  0.56040021  0.66290548  0.88184648     0.31000
H924        H  0.54276907  0.49422560  0.87227852     0.31300
Zr925      Zr  0.42180925  0.22384096  0.77434659     2.17500
O926        O  0.44774002  0.26475439  0.79315850    -0.51100
O927        O  0.47666506  0.21282171  0.77046867    -0.74300
O928        O  0.41679368  0.18546811  0.79292753    -0.81100
O929        O  0.45499843  0.31533077  0.75443800    -0.82800
O930        O  0.36157776  0.12611922  0.79082119    -0.78400
O931        O  0.47233612  0.29179140  0.77139839    -0.90100
O932        O  0.46582825  0.18154866  0.75153987    -0.76000
O933        O  0.39226302  0.15817646  0.76674024    -0.85500
O934        O  0.42993390  0.22926188  0.75196835    -0.85200
O935        O  0.35446280  0.19302025  0.78085822    -0.72000
O936        O  0.38963956  0.25845391  0.76729358    -0.84100
Zr937      Zr  0.29974689  0.16583766  0.74305762     2.26400
Zr938      Zr  0.32474649  0.12764844  0.77261513     2.06300
Zr939      Zr  0.39636354  0.26217694  0.74482464     2.10000
Zr940      Zr  0.40030618  0.16367254  0.74443919     1.78800
O941        O  0.38098278  0.31480780  0.74456764    -0.92900
O942        O  0.39679784  0.10064543  0.74733234    -0.40700
O943        O  0.36718637  0.19658087  0.73711594    -0.77300
O944        O  0.33213192  0.13108424  0.75004222    -0.96000
O945        O  0.29176975  0.16102865  0.76540476    -0.89300
O946        O  0.32897953  0.23159878  0.75055207    -0.92200
C947        C  0.48688703  0.19813964  0.76136625     1.01600
C948        C  0.47775280  0.31938133  0.76372480     1.14500
C949        C  0.39309174  0.15046601  0.79664140     1.05300
O950        O  0.32162036  0.06437568  0.77219410    -0.94300
O951        O  0.26228140  0.07467632  0.76504489    -0.90100
O952        O  0.24955850  0.09828181  0.74719593    -0.83200
C953        C  0.24084407  0.07114237  0.75542227     1.11900
O954        O  0.34523592  0.26216147  0.79299413    -0.96300
Zr955      Zr  0.32207787  0.22660866  0.77303267     1.88900
O956        O  0.24820453  0.18243000  0.74662891    -0.73000
O957        O  0.28044193  0.11100518  0.79055074    -0.52200
O958        O  0.27236876  0.19331368  0.78923359    -0.96900
O959        O  0.33063720  0.29215558  0.77137596    -0.54100
O960        O  0.26106688  0.21756425  0.76481872    -0.73500
C961        C  0.23982364  0.20065026  0.75510407     0.98900
O962        O  0.26472004  0.13041664  0.72403701    -0.62300
O963        O  0.44627176  0.29569364  0.72868526    -0.57100
O964        O  0.31604840  0.19403688  0.72186937    -0.93800
O965        O  0.37161263  0.25338548  0.72328240    -0.92200
O966        O  0.44089936  0.19372229  0.72586396    -0.92600
O967        O  0.37801138  0.12279594  0.72554055    -0.91300
C968        C  0.34324332  0.22594561  0.71700034     1.17700
H969        H  0.45719443  0.24402661  0.74964155     0.33700
H970        H  0.31946938  0.10503241  0.74646209     0.44500
H971        H  0.31699842  0.24541677  0.74677748     0.38000
H972        H  0.35297038  0.19232037  0.79001981     0.34500
H973        H  0.41708084  0.10540986  0.75372384     0.26300
H974        H  0.27124797  0.08301743  0.79223101     0.32200
H975        H  0.28453314  0.18390342  0.79547398     0.38200
H976        H  0.42852487  0.20695223  0.72146441     0.32600
H977        H  0.45442672  0.32376778  0.72957259     0.31500
H978        H  0.40009847  0.33491273  0.75041700     0.33200
H979        H  0.31006153  0.29166128  0.77683912     0.32100
H980        H  0.35350063  0.12225470  0.72314153     0.36100
H981        H  0.26838386  0.10736077  0.72352894     0.28900
H982        H  0.46906312  0.26051161  0.79618405     0.33100
H983        H  0.32346712  0.26530985  0.79624534     0.36000
H984        H  0.46910266  0.29377600  0.73159127     0.28600
H985        H  0.23658311  0.11962085  0.72583734     0.41400
H986        H  0.30671982  0.05067832  0.77988175     0.31500
H987        H  0.37176483  0.08425675  0.75178913     0.39100
H988        H  0.32228296  0.29382243  0.76266372     0.31000
H989        H  0.29727710  0.12502488  0.79790033     0.31000
H990        H  0.42694516  0.25266438  0.79964040     0.31300
Zr991      Zr  0.54593148  0.09720738  0.89806669     2.17500
O992        O  0.58310248  0.12352815  0.87859338    -0.51100
O993        O  0.53182967  0.15009625  0.90049582    -0.74300
O994        O  0.50696655  0.09008529  0.87943199    -0.81100
O995        O  0.63416578  0.13365699  0.92019943    -0.82800
O996        O  0.45079960  0.03123156  0.88000397    -0.78400
O997        O  0.61232955  0.14983545  0.90250272    -0.90100
O998        O  0.49026175  0.13379083  0.91714542    -0.76000
O999        O  0.47893614  0.06325943  0.90400621    -0.85500
O1000       O  0.54504180  0.10536256  0.92038465    -0.85200
O1001       O  0.52149774  0.03041237  0.89168449    -0.72000
O1002       O  0.58234217  0.06906934  0.90686337    -0.84100
Zr1003     Zr  0.48800218  0.97525393  0.92955626     2.26400
Zr1004     Zr  0.45446231  0.99632084  0.89831400     2.06300
Zr1005     Zr  0.57964093  0.07565456  0.92929028     2.10000
Zr1006     Zr  0.47791824  0.07150487  0.92615634     1.78800
O1007       O  0.63785973  0.07064122  0.93293216    -0.92900
O1008       O  0.41274565  0.06028083  0.92134729    -0.40700
O1009       O  0.51260620  0.04239206  0.93550590    -0.77300
O1010       O  0.45122627  0.00353916  0.92076534    -0.96000
O1011       O  0.48946253  0.96705671  0.90725513    -0.89300
O1012       O  0.55524730  0.00863389  0.92369663    -0.92200
C1013       C  0.51074465  0.15693708  0.90812585     1.01600
C1014       C  0.63891548  0.15584872  0.91068759     1.14500
C1015       C  0.47344374  0.06465145  0.87496433     1.05300
O1016       O  0.38956651  0.98853646  0.89620154    -0.94300
O1017       O  0.40416893  0.93233627  0.90544324    -0.90100
O1018       O  0.42190750  0.92318937  0.92502956    -0.83200
C1019       C  0.39807595  0.91253469  0.91566273     1.11900
O1020       O  0.60017070  0.02567318  0.88306953    -0.96300
Zr1021     Zr  0.55647845  0.00176014  0.90128182     1.88900
O1022       O  0.50576045  0.92439931  0.92661711    -0.73000
O1023       O  0.44466552  0.95388493  0.88023932    -0.52200
O1024       O  0.53140287  0.95776265  0.88312188    -0.96900
O1025       O  0.62217025  0.01386683  0.90587451    -0.54100
O1026       O  0.54611217  0.94015826  0.90965836    -0.73500
C1027       C  0.52672038  0.91756198  0.91884833     0.98900
O1028       O  0.45214680  0.93811337  0.94817459    -0.62300
O1029       O  0.59963879  0.12874846  0.94454819    -0.57100
O1030       O  0.51341904  0.99009174  0.95116173    -0.93800
O1031       O  0.57055107  0.04790437  0.95036233    -0.92200
O1032       O  0.49995378  0.11621835  0.94416533    -0.92600
O1033       O  0.43583475  0.04708957  0.94469878    -0.91300
C1034       C  0.54422212  0.01796580  0.95636260     1.17700
H1035       H  0.55760800  0.13269863  0.92267767     0.33700
H1036       H  0.42446349  0.98949688  0.92359960     0.44500
H1037       H  0.56935873  0.99826852  0.92807914     0.38000
H1038       H  0.52311282  0.02921989  0.88261271     0.34500
H1039       H  0.41037342  0.08014506  0.92640609     0.26300
H1040       H  0.46722282  0.96932080  0.87459249     0.32200
H1041       H  0.51293182  0.93177937  0.88672350     0.38200
H1042       H  0.52223165  0.14088337  0.94095827     0.32600
H1043       H  0.61945137  0.12739424  0.94994949     0.31500
H1044       H  0.65574320  0.09463283  0.93772727     0.33200
H1045       H  0.62012905  0.00091199  0.91409341     0.32100
H1046       H  0.43233510  0.02072455  0.94619599     0.36100
H1047       H  0.42802386  0.93989464  0.94850918     0.28900
H1048       H  0.60728457  0.12216843  0.87973102     0.33100
H1049       H  0.60761645  0.00555735  0.88136117     0.36000
H1050       H  0.57669705  0.12028125  0.95014057     0.28600
H1051       H  0.44328831  0.91029086  0.94629201     0.41400
H1052       H  0.38291277  0.99326458  0.90481054     0.31500
H1053       H  0.41430275  0.06902574  0.91246714     0.39100
H1054       H  0.63760831  0.04223120  0.90778520     0.31000
H1055       H  0.44901109  0.93296138  0.88363212     0.31000
H1056       H  0.59178798  0.15184714  0.87872928     0.31300
Zr1057     Zr  0.96729233  0.49496269  0.89728563     2.17500
O1058       O  0.94458089  0.51317001  0.87841399    -0.51100
O1059       O  0.91245494  0.42908795  0.90005970    -0.74300
O1060       O  0.97336648  0.46195891  0.87871227    -0.81100
O1061       O  0.92711328  0.54281609  0.91916427    -0.82800
O1062       O  0.03310825  0.46660976  0.87942007    -0.78400
O1063       O  0.91446539  0.50885617  0.90071552    -0.90100
O1064       O  0.92786704  0.40419847  0.91702751    -0.76000
O1065       O  0.00114987  0.46170164  0.90341396    -0.85500
O1066       O  0.95756910  0.48459022  0.91953485    -0.85200
O1067       O  0.03448881  0.53748525  0.89149461    -0.72000
O1068       O  0.99409647  0.55881579  0.90651737    -0.84100
Zr1069     Zr  0.08641438  0.55854316  0.93003651     2.26400
Zr1070     Zr  0.06828360  0.50439982  0.89826576     2.06300
Zr1071     Zr  0.98534956  0.54814913  0.92878309     2.10000
Zr1072     Zr  0.99177357  0.45173046  0.92553459     1.78800
O1073       O  0.98896302  0.61085948  0.93230815    -0.92900
O1074       O  0.99964534  0.39632166  0.91956014    -0.40700
O1075       O  0.01915325  0.51490384  0.93533091    -0.77300
O1076       O  0.05980987  0.49405348  0.92076799    -0.96000
O1077       O  0.09556003  0.56795569  0.90774063    -0.89300
O1078       O  0.05258341  0.59177769  0.92378571    -0.92200
C1079       C  0.90456754  0.40162346  0.90805238     1.01600
C1080       C  0.90650406  0.52728750  0.90918617     1.14500
C1081       C  0.99947078  0.45498798  0.87422075     1.05300
O1082       O  0.07747682  0.44786704  0.89679672    -0.94300
O1083       O  0.13309941  0.51990437  0.90558209    -0.90100
O1084       O  0.14238295  0.55088338  0.92447792    -0.83200
C1085       C  0.15374070  0.53686513  0.91546724     1.11900
O1086       O  0.03802788  0.61820749  0.88267141    -0.96300
Zr1087     Zr  0.06153318  0.60054268  0.90147044     1.88900
O1088       O  0.13734717  0.62748677  0.92824723    -0.73000
O1089       O  0.11139536  0.53980248  0.88068146    -0.52200
O1090       O  0.10878131  0.62429179  0.88425592    -0.96900
O1091       O  0.04723066  0.65327115  0.90481045    -0.54100
O1092       O  0.12226200  0.65086228  0.91080352    -0.73500
C1093       C  0.14449277  0.65489274  0.92025815     0.98900
O1094       O  0.11749408  0.54980490  0.94876779    -0.62300
O1095       O  0.93300893  0.51607732  0.94430383    -0.57100
O1096       O  0.06949774  0.57377619  0.95095828    -0.93800
O1097       O  0.00889336  0.56672111  0.95014718    -0.92200
O1098       O  0.95038738  0.43034559  0.94427602    -0.92600
O1099       O  0.01626608  0.42910655  0.94286570    -0.91300
C1100       C  0.04012220  0.57434295  0.95612383     1.17700
H1101       H  0.93014563  0.46959021  0.92163218     0.33700
H1102       H  0.07426514  0.48176656  0.92375516     0.44500
H1103       H  0.06229346  0.61632181  0.92818622     0.38000
H1104       H  0.03656171  0.54084134  0.88233024     0.34500
H1105       H  0.97674372  0.37319676  0.92328638     0.26300
H1106       H  0.13484471  0.56166656  0.88469438     0.32200
H1107       H  0.13246688  0.62535225  0.88784352     0.38200
H1108       H  0.95446471  0.45485133  0.94826039     0.32600
H1109       H  0.91899210  0.53102549  0.94413576     0.31500
H1110       H  0.97032187  0.60586171  0.93928131     0.33200
H1111       H  0.07274996  0.67671595  0.90674633     0.32100
H1112       H  0.03579512  0.45339709  0.94719439     0.36100
H1113       H  0.11813702  0.52533334  0.94727492     0.28900
H1114       H  0.92201220  0.48845895  0.87535383     0.33100
H1115       H  0.00990335  0.59829035  0.88218169     0.36000
H1116       H  0.91428538  0.49030057  0.94061209     0.28600
H1117       H  0.14515218  0.57100974  0.94837846     0.41400
H1118       H  0.09196981  0.45169594  0.88878747     0.31500
H1119       H  0.99480559  0.39325308  0.91031274     0.39100
H1120       H  0.03271097  0.64687133  0.91289112     0.31000
H1121       H  0.12043656  0.52206453  0.87748742     0.31000
H1122       H  0.96526323  0.52028858  0.87198040     0.31300
Zr1123     Zr  0.84305609  0.24782376  0.77210450     2.17500
O1124       O  0.80225909  0.23421256  0.79083737    -0.51100
O1125       O  0.85888172  0.31531015  0.76998182    -0.74300
O1126       O  0.88396900  0.27906170  0.79059931    -0.81100
O1127       O  0.75448678  0.20013471  0.75118383    -0.82800
O1128       O  0.93999838  0.27652029  0.78926789    -0.78400
O1129       O  0.77747157  0.23726698  0.76899482    -0.90100
O1130       O  0.89646291  0.33879428  0.75237894    -0.76000
O1131       O  0.90897676  0.28088151  0.76501709    -0.85500
O1132       O  0.84080268  0.25609376  0.74981491    -0.85200
O1133       O  0.86815428  0.20561434  0.77785188    -0.72000
O1134       O  0.80524667  0.18297121  0.76345320    -0.84100
Zr1135     Zr  0.89637145  0.18182673  0.73920329     2.26400
Zr1136     Zr  0.93416920  0.23888235  0.77026722     2.06300
Zr1137     Zr  0.80496223  0.19170393  0.74108593     2.10000
Zr1138     Zr  0.90656450  0.28827595  0.74280640     1.78800
O1139       O  0.74607432  0.12837494  0.73809200    -0.92900
O1140       O  0.97143943  0.34529438  0.74546975    -0.40700
O1141       O  0.87106580  0.22413548  0.73378607    -0.77300
O1142       O  0.93371751  0.24721397  0.74780510    -0.96000
O1143       O  0.89791202  0.17442483  0.76157491    -0.89300
O1144       O  0.82987028  0.14892716  0.74603886    -0.92200
C1145       C  0.87872243  0.34262264  0.76201296     1.01600
C1146       C  0.75046640  0.21768922  0.76083988     1.14500
C1147       C  0.91774312  0.28697829  0.79481014     1.05300
O1148       O  0.99865746  0.29726068  0.76976392    -0.94300
O1149       O  0.98079484  0.22106836  0.76234893    -0.90100
O1150       O  0.96050696  0.18910474  0.74353126    -0.83200
C1151       C  0.98512789  0.20362992  0.75272150     1.11900
O1152       O  0.79151682  0.12415133  0.78730734    -0.96300
Zr1153     Zr  0.83192462  0.14181264  0.76836831     1.88900
O1154       O  0.87975035  0.11321715  0.74150384    -0.73000
O1155       O  0.94885018  0.20977780  0.78830944    -0.52200
O1156       O  0.85629852  0.11943304  0.78577790    -0.96900
O1157       O  0.76598401  0.08746456  0.76461826    -0.54100
O1158       O  0.84458330  0.09232156  0.75964293    -0.73500
C1159       C  0.86144483  0.08708632  0.75005693     0.98900
O1160       O  0.94128605  0.19499043  0.72164470    -0.62300
O1161       O  0.78316212  0.22285327  0.72567618    -0.57100
O1162       O  0.86196954  0.16453343  0.71867218    -0.93800
O1163       O  0.80913056  0.17280791  0.71964282    -0.92200
O1164       O  0.87586429  0.30366384  0.72541442    -0.92600
O1165       O  0.94686430  0.30699106  0.72382260    -0.91300
C1166       C  0.83218337  0.16454872  0.71359869     1.17700
H1167       H  0.82834533  0.27118636  0.74784577     0.33700
H1168       H  0.96009037  0.25946471  0.74460520     0.44500
H1169       H  0.81480467  0.12389271  0.74179446     0.38000
H1170       H  0.86772544  0.20290608  0.78695401     0.34500
H1171       H  0.97175298  0.35433052  0.75424330     0.26300
H1172       H  0.92479953  0.19779774  0.79350597     0.32200
H1173       H  0.88187738  0.12361745  0.78281795     0.38200
H1174       H  0.86572973  0.28073883  0.71967664     0.32600
H1175       H  0.75477900  0.20445387  0.72470358     0.31500
H1176       H  0.72717176  0.13453004  0.73402885     0.33200
H1177       H  0.76747755  0.07538280  0.75657161     0.32100
H1178       H  0.93843091  0.28198600  0.71930775     0.36100
H1179       H  0.93080092  0.16990794  0.71698774     0.28900
H1180       H  0.80938736  0.26025202  0.79435141     0.33100
H1181       H  0.77848427  0.14002017  0.78683592     0.36000
H1182       H  0.78477144  0.24579853  0.73006578     0.28600
H1183       H  0.93744124  0.21258880  0.71587690     0.41400
H1184       H  0.99378874  0.31931556  0.77110683     0.31500
H1185       H  0.98941270  0.33462473  0.74570456     0.39100
H1186       H  0.75037478  0.10004416  0.76252381     0.31000
H1187       H  0.95011324  0.18719131  0.78476051     0.31000
H1188       H  0.81244755  0.22270219  0.79705302     0.31300
C1189       C  0.95224158  0.40449401  0.84294834    -0.14100
C1190       C  0.96600031  0.37817000  0.84153511     0.16300
C1191       C  0.99358101  0.37967281  0.85047465     0.02600
C1192       C  0.00506443  0.40585965  0.86074307    -0.12600
C1193       C  0.98942732  0.43064069  0.86250158    -0.03700
C1194       C  0.96291893  0.42989734  0.85331037     0.01800
C1195       C  0.95301325  0.35188063  0.83018362     0.08700
N1196       N  0.00956611  0.35427766  0.84956734     0.65000
H1197       H  0.02542191  0.40577816  0.86762483     0.17900
N1198       N  0.94666605  0.45500360  0.85411665     0.75500
H1199       H  0.93326922  0.40590193  0.83581698     0.09400
C1200       C  0.91320101  0.33007459  0.82645485     0.03100
C1201       C  0.90286048  0.30925603  0.81503087    -0.05600
C1202       C  0.93107670  0.30921994  0.80696965    -0.24000
C1203       C  0.97082745  0.33083748  0.81071726     0.12400
C1204       C  0.98124538  0.35191313  0.82213733    -0.13100
N1205       N  0.88253479  0.32846654  0.83407639     0.64100
H1206       H  0.87215873  0.29283853  0.81249925     0.11900
N1207       N  0.00142658  0.33347731  0.80285908     0.60700
H1208       H  0.01195840  0.36979316  0.82443344     0.08100
O1209       O  0.96235346  0.48641964  0.84783166    -0.40800
O1210       O  0.91132313  0.44025141  0.85732717    -0.39900
O1211       O  0.04439221  0.36827605  0.84585552    -0.39900
O1212       O  0.99417294  0.32305691  0.85594937    -0.37600
O1213       O  0.01952427  0.36295414  0.79577309    -0.38500
O1214       O  0.01739049  0.31367377  0.80575094    -0.34700
O1215       O  0.86627819  0.34750285  0.83056591    -0.36100
O1216       O  0.86407221  0.29955683  0.84135133    -0.40400
C1217       C  0.30614658  0.81615501  0.90802052    -0.14100
C1218       C  0.28738816  0.80625640  0.91987423     0.16300
C1219       C  0.30622981  0.83090965  0.93034878     0.02600
C1220       C  0.34234889  0.86508872  0.92877946    -0.12600
C1221       C  0.36069858  0.87531077  0.91693886    -0.03700
C1222       C  0.34277247  0.85015074  0.90653246     0.01800
C1223       C  0.24966013  0.76886337  0.92123481     0.08700
N1224       N  0.28903540  0.82216796  0.94265314     0.65000
H1225       H  0.35588676  0.88405715  0.93688410     0.17900
N1226       N  0.36243536  0.85790768  0.89461168     0.75500
H1227       H  0.29275732  0.79683450  0.89998705     0.09400
C1228       C  0.21493245  0.76333706  0.91555540     0.03100
C1229       C  0.18094723  0.72658130  0.91597548    -0.05600
C1230       C  0.18050496  0.69412814  0.92169810    -0.24000
C1231       C  0.21516694  0.69995706  0.92768723     0.12400
C1232       C  0.24910242  0.73714782  0.92747117    -0.13100
N1233       N  0.21363274  0.79443491  0.90905738     0.64100
H1234       H  0.15483775  0.72330942  0.91143986     0.11900
N1235       N  0.21753306  0.66816942  0.93323896     0.60700
H1236       H  0.27573248  0.74085132  0.93173179     0.08100
O1237       O  0.39336894  0.85609836  0.89372623    -0.40800
O1238       O  0.35398584  0.87454838  0.88597194    -0.39900
O1239       O  0.30197710  0.80809490  0.95080770    -0.39900
O1240       O  0.27138934  0.83959990  0.94637058    -0.37600
O1241       O  0.23173423  0.65125755  0.92682555    -0.38500
O1242       O  0.21589712  0.66455643  0.94513253    -0.34700
O1243       O  0.21530170  0.79534237  0.89711650    -0.36100
O1244       O  0.19910530  0.81248244  0.91464000    -0.40400
C1245       C  0.74855270  0.22384719  0.90921746    -0.14100
C1246       C  0.75122216  0.26062185  0.90855180     0.16300
C1247       C  0.71624721  0.26227188  0.90759317     0.02600
C1248       C  0.67995710  0.22761746  0.90783991    -0.12600
C1249       C  0.67760289  0.19118865  0.90923828    -0.03700
C1250       C  0.71234236  0.18941944  0.90978285     0.01800
C1251       C  0.79070346  0.29633987  0.90836843     0.08700
N1252       N  0.71671960  0.29870542  0.90680974     0.65000
H1253       H  0.65341894  0.22932049  0.90740527     0.17900
N1254       N  0.71151445  0.15285386  0.91054734     0.75500
H1255       H  0.77480899  0.22167439  0.90920002     0.09400
C1256       C  0.82002492  0.30230282  0.91725774     0.03100
C1257       C  0.85686087  0.33591919  0.91658927    -0.05600
C1258       C  0.86573295  0.36487360  0.90735597    -0.24000
C1259       C  0.83653039  0.35833638  0.89827114     0.12400
C1260       C  0.79993312  0.32411683  0.89876833    -0.13100
N1261       N  0.81278572  0.27542307  0.92737559     0.64100
H1262       H  0.87830460  0.33964120  0.92368756     0.11900
N1263       N  0.84252985  0.38631152  0.88868177     0.60700
H1264       H  0.77851953  0.31934182  0.89153559     0.08100
O1265       O  0.71963812  0.14287486  0.92096293    -0.40800
O1266       O  0.71399525  0.13703003  0.90046773    -0.39900
O1267       O  0.70804134  0.30833326  0.89641971    -0.39900
O1268       O  0.71424209  0.31453959  0.91688538    -0.37600
O1269       O  0.85083317  0.38082444  0.87761287    -0.38500
O1270       O  0.82765946  0.40785314  0.89020125    -0.34700
O1271       O  0.82804845  0.25394341  0.92691050    -0.36100
O1272       O  0.80237833  0.28182289  0.93798270    -0.40400
C1273       C  0.16033957  0.22789855  0.75903809    -0.14100
C1274       C  0.12756408  0.19448638  0.75423138     0.16300
C1275       C  0.13270305  0.16453889  0.74882009     0.02600
C1276       C  0.16983060  0.16806786  0.74868581    -0.12600
C1277       C  0.20236516  0.20080398  0.75398430    -0.03700
C1278       C  0.19732890  0.23128026  0.75905790     0.01800
C1279       C  0.08932003  0.19337711  0.75409694     0.08700
N1280       N  0.10039914  0.12948975  0.74392021     0.65000
H1281       H  0.17281898  0.14418505  0.74485444     0.17900
N1282       N  0.22938892  0.26633582  0.76406862     0.75500
H1283       H  0.15736220  0.25196898  0.76268211     0.09400
C1284       C  0.07321211  0.19985378  0.76515704     0.03100
C1285       C  0.03943092  0.20274787  0.76434613    -0.05600
C1286       C  0.02071765  0.19956214  0.75269676    -0.24000
C1287       C  0.03671327  0.19274461  0.74163913     0.12400
C1288       C  0.07066602  0.18988381  0.74245988    -0.13100
N1289       N  0.09027932  0.20311031  0.77737272     0.64100
H1290       H  0.02771709  0.20738327  0.77303528     0.11900
N1291       N  0.02020422  0.19029883  0.72940318     0.60700
H1292       H  0.08332436  0.18627820  0.73382642     0.08100
O1293       O  0.23319644  0.27039882  0.77593385    -0.40800
O1294       O  0.24537385  0.29645650  0.75715968    -0.39900
O1295       O  0.09636868  0.12494583  0.73207207    -0.39900
O1296       O  0.08416844  0.09970221  0.75096370    -0.37600
O1297       O  0.03497914  0.22036013  0.72246076    -0.38500
O1298       O  0.00032195  0.15706858  0.72430898    -0.34700
O1299       O  0.10917682  0.23650983  0.78244782    -0.36100
O1300       O  0.07630659  0.17319918  0.78437307    -0.40400
C1301       C  0.58623739  0.21165349  0.75251884    -0.14100
C1302       C  0.59715125  0.20091357  0.76371430     0.16300
C1303       C  0.57231822  0.18963389  0.77428217     0.02600
C1304       C  0.53685679  0.18986030  0.77355276    -0.12600
C1305       C  0.52545689  0.20024930  0.76219883    -0.03700
C1306       C  0.55065036  0.21098069  0.75159589     0.01800
C1307       C  0.63544402  0.20309762  0.76420597     0.08700
N1308       N  0.58224169  0.17628907  0.78552493     0.65000
H1309       H  0.51767944  0.18077273  0.78170814     0.17900
N1310       N  0.54105818  0.22184743  0.73980436     0.75500
H1311       H  0.60556267  0.22061284  0.74439413     0.09400
C1312       C  0.64132351  0.17444668  0.75836884     0.03100
C1313       C  0.67889766  0.17974450  0.75766215    -0.05600
C1314       C  0.71130947  0.21343737  0.76264527    -0.24000
C1315       C  0.70505534  0.24161289  0.76891476     0.12400
C1316       C  0.66722157  0.23614803  0.76959796    -0.13100
N1317       N  0.60953097  0.13997178  0.75296774     0.64100
H1318       H  0.68266744  0.15728693  0.75304971     0.11900
N1319       N  0.73660394  0.27677721  0.77407100     0.60700
H1320       H  0.66278592  0.25845829  0.77400988     0.08100
O1321       O  0.53097976  0.19811799  0.73065437    -0.40800
O1322       O  0.55452771  0.25773547  0.73749116    -0.39900
O1323       O  0.60539827  0.20108111  0.79343414    -0.39900
O1324       O  0.57661688  0.14183990  0.78582285    -0.37600
O1325       O  0.75103029  0.30766275  0.76752429    -0.38500
O1326       O  0.74139776  0.27959705  0.78592613    -0.34700
O1327       O  0.60252863  0.13943818  0.74128103    -0.36100
O1328       O  0.59618570  0.10795922  0.75884998    -0.40400
C1329       C  0.43428837  0.14692480  0.82880713    -0.14100
C1330       C  0.42770873  0.10865393  0.82878376     0.16300
C1331       C  0.40781431  0.08362575  0.81853947     0.02600
C1332       C  0.39564617  0.09759523  0.80836984    -0.12600
C1333       C  0.40344865  0.13644227  0.80813980    -0.03700
C1334       C  0.42263619  0.16114290  0.81859140     0.01800
C1335       C  0.43971038  0.09511686  0.83999234     0.08700
N1336       N  0.40140098  0.04464932  0.81800839     0.65000
H1337       H  0.38130023  0.07832207  0.80039033     0.17900
N1338       N  0.43017298  0.20049875  0.81916032     0.75500
H1339       H  0.44847999  0.16589694  0.83686424     0.09400
C1340       C  0.47936967  0.11163036  0.84334395     0.03100
C1341       C  0.48951759  0.10106006  0.85472495    -0.05600
C1342       C  0.46072981  0.07461533  0.86304787    -0.24000
C1343       C  0.42085282  0.05857276  0.85973270     0.12400
C1344       C  0.41081359  0.06870557  0.84820745    -0.13100
N1345       N  0.50974992  0.13928434  0.83532679     0.64100
H1346       H  0.52024633  0.11373604  0.85703651     0.11900
N1347       N  0.39013413  0.03390073  0.86819847     0.60700
H1348       H  0.38022256  0.05707377  0.84587867     0.08100
O1349       O  0.40597371  0.20726675  0.82477029    -0.40800
O1350       O  0.46492793  0.22803525  0.81789190    -0.39900
O1351       O  0.36723831  0.01622102  0.81955542    -0.39900
O1352       O  0.42648877  0.03878135  0.81260530    -0.37600
O1353       O  0.36969400  0.99784784  0.86572210    -0.38500
O1354       O  0.37695541  0.04927289  0.87576463    -0.34700
O1355       O  0.52557176  0.17529180  0.83791848    -0.36100
O1356       O  0.52750022  0.12761170  0.82821282    -0.40400
C1357       C  0.74336344  0.53105438  0.89579031    -0.14100
C1358       C  0.76027953  0.52795212  0.90710154     0.16300
C1359       C  0.74361817  0.52969520  0.91874297     0.02600
C1360       C  0.71124293  0.53505438  0.91888486    -0.12600
C1361       C  0.69426003  0.53837935  0.90762093    -0.03700
C1362       C  0.71054185  0.53605354  0.89592506     0.01800
C1363       C  0.79790322  0.52798047  0.90673456     0.08700
N1364       N  0.75871060  0.52535028  0.93056880     0.65000
H1365       H  0.69887053  0.53593739  0.92795460     0.17900
N1366       N  0.69550184  0.54051020  0.88411372     0.75500
H1367       H  0.75649419  0.53094768  0.88679710     0.09400
C1368       C  0.80265242  0.49910675  0.90035794     0.03100
C1369       C  0.83872665  0.50033636  0.90085655    -0.05600
C1370       C  0.87050282  0.52987907  0.90758668    -0.24000
C1371       C  0.86628521  0.56012169  0.91321967     0.12400
C1372       C  0.83033663  0.55884465  0.91272118    -0.13100
N1373       N  0.77106657  0.46759018  0.89370630     0.64100
H1374       H  0.84142998  0.47725733  0.89628262     0.11900
N1375       N  0.89823674  0.59288738  0.91929484     0.60700
H1376       H  0.82775600  0.58235008  0.91707412     0.08100
O1377       O  0.67623651  0.51074109  0.87721090    -0.40800
O1378       O  0.71061719  0.57407541  0.87915411    -0.39900
O1379       O  0.77848018  0.55523209  0.93738306    -0.39900
O1380       O  0.74306338  0.49193183  0.93564521    -0.37600
O1381       O  0.91793586  0.62403375  0.91306249    -0.38500
O1382       O  0.89913602  0.59448910  0.93123603    -0.34700
O1383       O  0.77098873  0.46833781  0.88175416    -0.36100
O1384       O  0.75129155  0.43517676  0.89927303    -0.40400
C1385       C  0.24724725  0.53219271  0.90946459    -0.14100
C1386       C  0.26445718  0.54061612  0.92153307     0.16300
C1387       C  0.24654768  0.55069539  0.93125744     0.02600
C1388       C  0.21116683  0.54984495  0.92893090    -0.12600
C1389       C  0.19282401  0.53968383  0.91697690    -0.03700
C1390       C  0.21209982  0.53175997  0.90706172     0.01800
C1391       C  0.30202894  0.54069000  0.92329309     0.08700
N1392       N  0.26315818  0.56113673  0.94365565     0.65000
H1393       H  0.19774915  0.55670117  0.93671300     0.17900
N1394       N  0.19745334  0.52433088  0.89438197     0.75500
H1395       H  0.26162667  0.52647091  0.90170440     0.09400
C1396       C  0.30553317  0.50787078  0.91989802     0.03100
C1397       C  0.34231927  0.51084462  0.91955894    -0.05600
C1398       C  0.37647113  0.54598705  0.92251794    -0.24000
C1399       C  0.37303561  0.57853809  0.92634927     0.12400
C1400       C  0.33600758  0.57555691  0.92671351    -0.13100
N1401       N  0.27212693  0.47126854  0.91654863     0.64100
H1402       H  0.34420280  0.48538266  0.91674853     0.11900
N1403       N  0.40679332  0.61572019  0.92884131     0.60700
H1404       H  0.33412567  0.60136490  0.92897977     0.08100
O1405       O  0.18095296  0.48963293  0.89026451    -0.40800
O1406       O  0.21153589  0.55221293  0.88654230    -0.39900
O1407       O  0.28060422  0.59679832  0.94681901    -0.39900
O1408       O  0.24981445  0.53543774  0.95223235    -0.37600
O1409       O  0.42064252  0.64062126  0.92003108    -0.38500
O1410       O  0.41509558  0.62725532  0.94016213    -0.34700
O1411       O  0.26656776  0.46109775  0.90505063    -0.36100
O1412       O  0.25616439  0.44529157  0.92496305    -0.40400
C1413       C  0.49118813  0.31211838  0.91125548    -0.14100
C1414       C  0.52319128  0.31000683  0.90656425     0.16300
C1415       C  0.55501101  0.34413912  0.90139148     0.02600
C1416       C  0.55504270  0.37975989  0.90168917    -0.12600
C1417       C  0.52399943  0.38236414  0.90714162    -0.03700
C1418       C  0.49129493  0.34761562  0.91167561     0.01800
C1419       C  0.52159128  0.27149310  0.90694888     0.08700
N1420       N  0.58841394  0.34382844  0.89637442     0.65000
H1421       H  0.58041617  0.40589270  0.89814331     0.17900
N1422       N  0.45760108  0.34740525  0.91665586     0.75500
H1423       H  0.46577154  0.28585960  0.91471070     0.09400
C1424       C  0.51499207  0.25064111  0.91842368     0.03100
C1425       C  0.51019644  0.21305209  0.91838959    -0.05600
C1426       C  0.51215650  0.19524925  0.90713487    -0.24000
C1427       C  0.51810213  0.21579163  0.89558046     0.12400
C1428       C  0.52270733  0.25352736  0.89561175    -0.13100
N1429       N  0.51442686  0.26762322  0.93032243     0.64100
H1430       H  0.50616483  0.19820436  0.92737582     0.11900
N1431       N  0.51807930  0.19846618  0.88368850     0.60700
H1432       H  0.52630599  0.26852493  0.88668454     0.08100
O1433       O  0.45289782  0.34576482  0.92850563    -0.40800
O1434       O  0.42823224  0.33665385  0.90955339    -0.39900
O1435       O  0.59405323  0.34715327  0.88456487    -0.39900
O1436       O  0.61688491  0.35195732  0.90363965    -0.37600
O1437       O  0.55028684  0.20892908  0.87828659    -0.38500
O1438       O  0.48711999  0.18264031  0.87716183    -0.34700
O1439       O  0.48205361  0.25609778  0.93575867    -0.36100
O1440       O  0.54534617  0.28392845  0.93685379    -0.40400
C1441       C  0.56171075  0.84359756  0.91744664    -0.14100
C1442       C  0.52758040  0.80896326  0.92039966     0.16300
C1443       C  0.49372705  0.80994414  0.92379417     0.02600
C1444       C  0.49411737  0.84579851  0.92376941    -0.12600
C1445       C  0.52812623  0.88077372  0.92028825    -0.03700
C1446       C  0.56236000  0.87930567  0.91733558     0.01800
C1447       C  0.52817531  0.77199866  0.92008734     0.08700
N1448       N  0.45871675  0.77444353  0.92690337     0.65000
H1449       H  0.46750704  0.84609239  0.92601476     0.17900
N1450       N  0.59834004  0.91374231  0.91430084     0.75500
H1451       H  0.58805878  0.84285381  0.91512089     0.09400
C1452       C  0.52662857  0.75350177  0.90854920     0.03100
C1453       C  0.52911196  0.71945947  0.90851351    -0.05600
C1454       C  0.53346644  0.70340206  0.91984548    -0.24000
C1455       C  0.53510326  0.72221987  0.93145777     0.12400
C1456       C  0.53237369  0.75625044  0.93144212    -0.13100
N1457       N  0.52266698  0.76898130  0.89676949     0.64100
H1458       H  0.52736273  0.70538147  0.89952057     0.11900
N1459       N  0.54154973  0.70870626  0.94327447     0.60700
H1460       H  0.53432780  0.77093644  0.94032638     0.08100
O1461       O  0.60937184  0.91965662  0.90290322    -0.40800
O1462       O  0.62347148  0.93027203  0.92294483    -0.39900
O1463       O  0.45373129  0.76191457  0.93813547    -0.39900
O1464       O  0.43892989  0.75114316  0.91812268    -0.37600
O1465       O  0.57574217  0.72528058  0.94778582    -0.38500
O1466       O  0.51299904  0.69045999  0.95067729    -0.34700
O1467       O  0.55237997  0.78758608  0.88984654    -0.36100
O1468       O  0.48910367  0.75552718  0.89195305    -0.40400
C1469       C  0.06987154  0.92213655  0.76236711    -0.14100
C1470       C  0.08793890  0.93268208  0.75049886     0.16300
C1471       C  0.06819014  0.90937887  0.73984783     0.02600
C1472       C  0.03130124  0.87584026  0.74135956    -0.12600
C1473       C  0.01371968  0.86477090  0.75333691    -0.03700
C1474       C  0.03326393  0.88875013  0.76389560     0.01800
C1475       C  0.12821679  0.96673322  0.75005715     0.08700
N1476       N  0.08551833  0.91810176  0.72755489     0.65000
H1477       H  0.01692002  0.85766059  0.73316785     0.17900
N1478       N  0.01593494  0.88067770  0.77619125     0.75500
H1479       H  0.08453623  0.94000671  0.77059549     0.09400
C1480       C  0.13676555  0.00277109  0.74462393     0.03100
C1481       C  0.17380216  0.03570941  0.74630927    -0.05600
C1482       C  0.20286433  0.03416749  0.75361235    -0.24000
C1483       C  0.19420081  0.99783683  0.75902577     0.12400
C1484       C  0.15733137  0.96470056  0.75709742    -0.13100
N1485       N  0.10758986  0.00746831  0.73816065     0.64100
H1486       H  0.17916926  0.06320757  0.74224666     0.11900
N1487       N  0.22208149  0.99367324  0.76650537     0.60700
H1488       H  0.15087294  0.93728337  0.76151781     0.08100
O1489       O  0.99916930  0.89907872  0.77981036    -0.40800
O1490       O  0.02749385  0.86546202  0.78440183    -0.39900
O1491       O  0.10249992  0.90008605  0.72375978    -0.39900
O1492       O  0.07313273  0.93281322  0.71944297    -0.37600
O1493       O  0.21916586  0.99309681  0.77841819    -0.38500
O1494       O  0.24091575  0.97917113  0.76144783    -0.34700
O1495       O  0.08848746  0.01970354  0.74433338    -0.36100
O1496       O  0.11003734  0.01184190  0.72629626    -0.40400
C1497       C  0.55117590  0.42846663  0.76187322    -0.14100
C1498       C  0.58589911  0.42924596  0.76517919     0.16300
C1499       C  0.58397936  0.39428611  0.76940501     0.02600
C1500       C  0.54808245  0.35918199  0.76941291    -0.12600
C1501       C  0.51370235  0.35799752  0.76529033    -0.03700
C1502       C  0.51535180  0.39347321  0.76187650     0.01800
C1503       C  0.62314814  0.46722228  0.76451497     0.08700
N1504       N  0.61821876  0.39332821  0.77320432     0.65000
H1505       H  0.54748733  0.33239625  0.77216376     0.17900
N1506       N  0.48095992  0.39494039  0.75869595     0.75500
H1507       H  0.55181623  0.45538694  0.75929625     0.09400
C1508       C  0.63493854  0.48964352  0.75327451     0.03100
C1509       C  0.66875545  0.52641973  0.75318900    -0.05600
C1510       C  0.69174417  0.54208059  0.76410932    -0.24000
C1511       C  0.67945136  0.51992184  0.77546427     0.12400
C1512       C  0.64549265  0.48292999  0.77552597    -0.13100
N1513       N  0.61349552  0.47533437  0.74171757     0.64100
H1514       H  0.67741582  0.54246496  0.74434006     0.11900
N1515       N  0.70000239  0.53473862  0.78713816     0.60700
H1516       H  0.63599922  0.46679307  0.78434134     0.08100
O1517       O  0.47516312  0.40006311  0.74727538    -0.40800
O1518       O  0.46392729  0.40302874  0.76728375    -0.39900
O1519       O  0.62397863  0.39094838  0.78485265    -0.39900
O1520       O  0.63511687  0.38305273  0.76522239    -0.37600
O1521       O  0.68773416  0.55045844  0.79490809    -0.38500
O1522       O  0.72149523  0.52177966  0.79113209    -0.34700
O1523       O  0.59291710  0.48957292  0.73790409    -0.36100
O1524       O  0.62442152  0.45877747  0.73381081    -0.40400
C1525       C  0.86757978  0.92847449  0.76198246    -0.14100
C1526       C  0.85006366  0.93418732  0.75125500     0.16300
C1527       C  0.83352978  0.90439499  0.74200796     0.02600
C1528       C  0.83530389  0.86994642  0.74352391    -0.12600
C1529       C  0.85242375  0.86397475  0.75431664    -0.03700
C1530       C  0.86859705  0.89366521  0.76364974     0.01800
C1531       C  0.85074964  0.97203438  0.74981613     0.08700
N1532       N  0.81378736  0.90803769  0.73121123     0.65000
H1533       H  0.82235612  0.84727169  0.73635067     0.17900
N1534       N  0.88724639  0.88961017  0.77468319     0.75500
H1535       H  0.88071417  0.95131592  0.76909677     0.09400
C1536       C  0.82385696  0.97931013  0.75623462     0.03100
C1537       C  0.82761638  0.01647526  0.75576973    -0.05600
C1538       C  0.85825410  0.04766524  0.74912800    -0.24000
C1539       C  0.88505998  0.04014615  0.74251130     0.12400
C1540       C  0.88099367  0.00255228  0.74292625    -0.13100
N1541       N  0.79271535  0.94945586  0.76347070     0.64100
H1542       H  0.80630348  0.02089534  0.76084509     0.11900
N1543       N  0.91751164  0.07033035  0.73580089     0.60700
H1544       H  0.90229884  0.99745795  0.73813469     0.08100
O1545       O  0.86940418  0.88178775  0.78512291    -0.40800
O1546       O  0.92390462  0.90441093  0.77469685    -0.39900
O1547       O  0.83010183  0.91454743  0.72052231    -0.39900
O1548       O  0.77727089  0.89402908  0.73173615    -0.37600
O1549       O  0.95026172  0.08842180  0.74129235    -0.38500
O1550       O  0.91632854  0.07046282  0.72385554    -0.34700
O1551       O  0.79599735  0.94987670  0.77537097    -0.36100
O1552       O  0.75908930  0.93101493  0.75857402    -0.40400
C1553       C  0.90633751  0.52228784  0.76009487    -0.14100
C1554       C  0.87705136  0.48871970  0.76606766     0.16300
C1555       C  0.84737508  0.49146074  0.77273326     0.02600
C1556       C  0.84554475  0.52597496  0.77214525    -0.12600
C1557       C  0.87264507  0.55817476  0.76503251    -0.03700
C1558       C  0.90424174  0.55652376  0.75933141     0.01800
C1559       C  0.87824759  0.45163074  0.76504456     0.08700
N1560       N  0.81802690  0.45940858  0.77983553     0.65000
H1561       H  0.82160910  0.52679568  0.77685999     0.17900
N1562       N  0.93450371  0.58902404  0.75263339     0.75500
H1563       H  0.93096780  0.52187358  0.75578147     0.09400
C1564       C  0.88404276  0.43795954  0.75327160     0.03100
C1565       C  0.88500422  0.40308869  0.75270793    -0.05600
C1566       C  0.88005780  0.38070148  0.76358191    -0.24000
C1567       C  0.87536487  0.39484138  0.77540253     0.12400
C1568       C  0.87504488  0.43017691  0.77600872    -0.13100
N1569       N  0.88815293  0.45836170  0.74166276     0.64100
H1570       H  0.88858763  0.39296165  0.74352882     0.11900
N1571       N  0.87179169  0.37449002  0.78696030     0.60700
H1572       H  0.87284556  0.44111106  0.78519067     0.08100
O1573       O  0.96689300  0.61004748  0.75809047    -0.40800
O1574       O  0.93309156  0.58919409  0.74069000    -0.39900
O1575       O  0.82137050  0.45991219  0.79173985    -0.39900
O1576       O  0.78460052  0.43883953  0.77496978    -0.37600
O1577       O  0.90180824  0.38531065  0.79375035    -0.38500
O1578       O  0.83851262  0.35526421  0.79200513    -0.34700
O1579       O  0.92160291  0.47718000  0.73669058    -0.36100
O1580       O  0.85843523  0.44747527  0.73472463    -0.40400
C1581       C  0.67532029  0.65480058  0.84779830    -0.14100
C1582       C  0.67596015  0.62538148  0.84052411     0.16300
C1583       C  0.65659393  0.58664337  0.84514242     0.02600
C1584       C  0.63668722  0.57800537  0.85667432    -0.12600
C1585       C  0.63570011  0.60722929  0.86405785    -0.03700
C1586       C  0.65581811  0.64631829  0.85949063     0.01800
C1587       C  0.70078317  0.63653387  0.82899685     0.08700
N1588       N  0.65634376  0.55538520  0.83821241     0.65000
H1589       H  0.62169543  0.54778486  0.85979406     0.17900
N1590       N  0.65847299  0.67818136  0.86672395     0.75500
H1591       H  0.69131464  0.68492899  0.84459121     0.09400
C1592       C  0.69483092  0.65531641  0.81853942     0.03100
C1593       C  0.72089139  0.66771848  0.80831956    -0.05600
C1594       C  0.75283592  0.66140795  0.80815638    -0.24000
C1595       C  0.75883125  0.64276242  0.81866720     0.12400
C1596       C  0.73304965  0.63084087  0.82893985    -0.13100
N1597       N  0.66169089  0.66065901  0.81784755     0.64100
H1598       H  0.71537306  0.68136433  0.80027179     0.11900
N1599       N  0.79162594  0.63687958  0.81937180     0.60700
H1600       H  0.73876941  0.61767154  0.83707410     0.08100
O1601       O  0.68797933  0.69745114  0.87372507    -0.40800
O1602       O  0.63884739  0.69380734  0.86324458    -0.39900
O1603       O  0.67866653  0.54287206  0.84173255    -0.39900
O1604       O  0.62678000  0.53344905  0.83155821    -0.37600
O1605       O  0.82210040  0.66215818  0.82499863    -0.38500
O1606       O  0.78591432  0.60257028  0.81815432    -0.34700
O1607       O  0.66659049  0.69454359  0.81946080    -0.36100
O1608       O  0.63165359  0.63550957  0.81200115    -0.40400
C1609       C  0.58794940  0.02112378  0.01747340    -0.14100
C1610       C  0.57041548  0.03811725  0.01034001     0.16300
C1611       C  0.55537947  0.05934142  0.01662204     0.02600
C1612       C  0.55747553  0.06257695  0.02981817    -0.12600
C1613       C  0.57410836  0.04477511  0.03707717    -0.03700
C1614       C  0.58988596  0.02414264  0.03071934     0.01800
C1615       C  0.56449478  0.03010835  0.99656592     0.08700
N1616       N  0.53784216  0.07787463  0.00977025     0.65000
H1617       H  0.54479985  0.07820229  0.03441463     0.17900
N1618       N  0.60855909  0.00657398  0.03745583     0.75500
H1619       H  0.59926997  0.00445149  0.01275484     0.09400
C1620       C  0.59591750  0.04417177  0.98798405     0.03100
C1621       C  0.58846282  0.03791279  0.97499068    -0.05600
C1622       C  0.55006412  0.01717220  0.97025166    -0.24000
C1623       C  0.51874688  0.00023085  0.97899817     0.12400
C1624       C  0.52629628  0.00715849  0.99199141    -0.13100
N1625       N  0.63554195  0.06616568  0.99218774     0.64100
H1626       H  0.61305570  0.05035848  0.96853123     0.11900
N1627       N  0.47899162  0.97773235  0.97497422     0.60700
H1628       H  0.50200105  0.99502904  0.99857008     0.08100
O1629       O  0.64539677  0.02460766  0.03804324    -0.40800
O1630       O  0.58995824  0.97009737  0.03936773    -0.39900
O1631       O  0.50138192  0.06403157  0.01053411    -0.39900
O1632       O  0.55913013  0.11288744  0.00624059    -0.37600
O1633       O  0.46211428  0.94088847  0.97576047    -0.38500
O1634       O  0.45844418  0.99399897  0.97458850    -0.34700
O1635       O  0.65501540  0.04891311  0.99335968    -0.36100
O1636       O  0.65352652  0.10292277  0.99096985    -0.40400
C1637       C  0.32845806  0.91165143  0.17744776    -0.14100
C1638       C  0.34544971  0.95167104  0.17482511     0.16300
C1639       C  0.33356504  0.97425166  0.18193916     0.02600
C1640       C  0.30633529  0.95681805  0.19169683    -0.12600
C1641       C  0.29004940  0.91687598  0.19462973    -0.03700
C1642       C  0.30132513  0.89411902  0.18721596     0.01800
C1643       C  0.37264349  0.96788003  0.16391714     0.08700
N1644       N  0.34907368  0.01506317  0.17957243     0.65000
H1645       H  0.29842748  0.97514992  0.19712158     0.17900
N1646       N  0.28552574  0.85311213  0.18923592     0.75500
H1647       H  0.33570822  0.89345489  0.17167774     0.09400
C1648       C  0.40479583  0.96175317  0.16248818     0.03100
C1649       C  0.42663331  0.97316247  0.15132886    -0.05600
C1650       C  0.41767166  0.99113843  0.14145742    -0.24000
C1651       C  0.38603501  0.99801249  0.14296530     0.12400
C1652       C  0.36370310  0.98594595  0.15405982    -0.13100
N1653       N  0.41611020  0.94432818  0.17226804     0.64100
H1654       H  0.45111890  0.96813540  0.15043239     0.11900
N1655       N  0.37466260  0.01521505  0.13314854     0.60700
H1656       H  0.33825353  0.98942391  0.15473961     0.08100
O1657       O  0.30605154  0.84171687  0.19500714    -0.40800
O1658       O  0.25817344  0.82928262  0.18214066    -0.39900
O1659       O  0.32779185  0.02595699  0.17402667    -0.39900
O1660       O  0.37737663  0.03954303  0.18621955    -0.37600
O1661       O  0.34725336  0.99301748  0.12577810    -0.38500
O1662       O  0.38281168  0.05034499  0.13437007    -0.34700
O1663       O  0.40932464  0.90970716  0.17078027    -0.36100
O1664       O  0.44259435  0.96646832  0.17991732    -0.40400
C1665       C  0.47592078  0.51961708  0.99207016    -0.14100
C1666       C  0.47559828  0.48566758  0.99611515     0.16300
C1667       C  0.47097802  0.45739503  0.98712099     0.02600
C1668       C  0.47001874  0.46496380  0.97423786    -0.12600
C1669       C  0.47430214  0.50080928  0.96994932    -0.03700
C1670       C  0.47519695  0.52749013  0.97915355     0.01800
C1671       C  0.48181909  0.48160498  0.00970922     0.08700
N1672       N  0.46974682  0.42192713  0.99078237     0.65000
H1673       H  0.46814452  0.44321143  0.96755968     0.17900
N1674       N  0.47720842  0.56349342  0.97576233     0.75500
H1675       H  0.47820746  0.54094380  0.99901237     0.09400
C1676       C  0.51915461  0.50387454  0.01519933     0.03100
C1677       C  0.52378617  0.50337391  0.02830463    -0.05600
C1678       C  0.49161028  0.48154207  0.03623252    -0.24000
C1679       C  0.45424850  0.45827319  0.03067299     0.12400
C1680       C  0.44975821  0.45839066  0.01747911    -0.13100
N1681       N  0.55259392  0.52816435  0.00763011     0.64100
H1682       H  0.55259137  0.52178364  0.03234174     0.11900
N1683       N  0.42072120  0.43382288  0.03818523     0.60700
H1684       H  0.42094150  0.44116572  0.01331770     0.08100
O1685       O  0.50890170  0.59502509  0.97757695    -0.40800
O1686       O  0.44584317  0.56456895  0.97518049    -0.39900
O1687       O  0.43763708  0.39017184  0.99013678    -0.39900
O1688       O  0.50114626  0.42086502  0.99089944    -0.37600
O1689       O  0.39637949  0.44484554  0.04051228    -0.38500
O1690       O  0.41009359  0.39796996  0.03919663    -0.34700
O1691       O  0.56496514  0.56449343  0.00717473    -0.36100
O1692       O  0.57506248  0.51555609  0.00442424    -0.40400
C1693       C  0.53454504  0.75183103  0.10930791    -0.14100
C1694       C  0.53230190  0.76968206  0.09812901     0.16300
C1695       C  0.53428893  0.75376471  0.08635598     0.02600
C1696       C  0.53854626  0.72065317  0.08597468    -0.12600
C1697       C  0.54057096  0.70248772  0.09714383    -0.03700
C1698       C  0.53845161  0.71843722  0.10895008     0.01800
C1699       C  0.53212079  0.80708980  0.09893841     0.08700
N1700       N  0.53087618  0.77010493  0.07466991     0.65000
H1701       H  0.53931777  0.70854079  0.07683053     0.17900
N1702       N  0.54149108  0.70209548  0.12068501     0.75500
H1703       H  0.53416762  0.76443904  0.11839578     0.09400
C1704       C  0.50208142  0.81029232  0.10505405     0.03100
C1705       C  0.50327375  0.84638303  0.10535672    -0.05600
C1706       C  0.53409361  0.87972551  0.09970728    -0.24000
C1707       C  0.56554582  0.87691620  0.09438655     0.12400
C1708       C  0.56409894  0.84079756  0.09402233    -0.13100
N1709       N  0.46922937  0.77697472  0.11049876     0.64100
H1710       H  0.47894083  0.84777424  0.10952527     0.11900
N1711       N  0.59947477  0.91032933  0.08942440     0.60700
H1712       H  0.58828244  0.83907893  0.08986984     0.08100
O1713       O  0.51090153  0.68167336  0.12706537    -0.40800
O1714       O  0.57426849  0.71698975  0.12616528    -0.39900
O1715       O  0.56099585  0.78954201  0.06798290    -0.39900
O1716       O  0.49765614  0.75596181  0.06953610    -0.37600
O1717       O  0.62904211  0.92853073  0.09648321    -0.38500
O1718       O  0.60383986  0.91405834  0.07757154    -0.34700
O1719       O  0.46632416  0.77428974  0.12240539    -0.36100
O1720       O  0.43898758  0.75757342  0.10382293    -0.40400
C1721       C  0.56138203  0.26356756  0.08375644    -0.14100
C1722       C  0.52869697  0.26532846  0.08796386     0.16300
C1723       C  0.49519518  0.23065484  0.09190591     0.02600
C1724       C  0.49573312  0.19547245  0.09224365    -0.12600
C1725       C  0.52880492  0.19367014  0.08839835    -0.03700
C1726       C  0.56171634  0.22819053  0.08383587     0.01800
C1727       C  0.53004074  0.30349968  0.08781813     0.08700
N1728       N  0.45970168  0.23007866  0.09497561     0.65000
H1729       H  0.46972312  0.16916027  0.09535855     0.17900
N1730       N  0.59632066  0.22850609  0.07973337     0.75500
H1731       H  0.58703127  0.28999867  0.08050739     0.09400
C1732       C  0.53243321  0.32366345  0.09909295     0.03100
C1733       C  0.53331381  0.35945134  0.09853639    -0.05600
C1734       C  0.53260701  0.37648470  0.08690585    -0.24000
C1735       C  0.53225306  0.35714594  0.07556892     0.12400
C1736       C  0.53076830  0.32085263  0.07614925    -0.13100
N1737       N  0.53601795  0.30941344  0.11117893     0.64100
H1738       H  0.53517253  0.37432035  0.10737061     0.11900
N1739       N  0.53201485  0.37292802  0.06341634     0.60700
H1740       H  0.52985845  0.30592564  0.06742074     0.08100
O1741       O  0.62475427  0.24031735  0.08731250    -0.40800
O1742       O  0.60255632  0.22871127  0.06800567    -0.39900
O1743       O  0.43358593  0.21952257  0.08656801    -0.39900
O1744       O  0.44999777  0.22795023  0.10644949    -0.37600
O1745       O  0.56356185  0.39061111  0.05728046    -0.38500
O1746       O  0.50000598  0.35967383  0.05754703    -0.34700
O1747       O  0.56969846  0.32273511  0.11589490    -0.36100
O1748       O  0.50688853  0.29462070  0.11848337    -0.40400
C1749       C  0.90250357  0.86399920  0.26032756    -0.14100
C1750       C  0.92082664  0.86710037  0.24869741     0.16300
C1751       C  0.90423391  0.87196174  0.23753817     0.02600
C1752       C  0.86921494  0.87256643  0.23811987    -0.12600
C1753       C  0.84987983  0.86818267  0.24968584    -0.03700
C1754       C  0.86730168  0.86452200  0.26095010     0.01800
C1755       C  0.95618653  0.86329220  0.24838539     0.08700
N1756       N  0.92223841  0.87580979  0.22550107     0.65000
H1757       H  0.85683284  0.87609759  0.22938486     0.17900
N1758       N  0.84872738  0.85873972  0.27297761     0.75500
H1759       H  0.91506499  0.86001495  0.26894790     0.09400
C1760       C  0.99297746  0.89469989  0.25178204     0.03100
C1761       C  0.02581364  0.88969183  0.25189771    -0.05600
C1762       C  0.02252504  0.85354581  0.24849917    -0.24000
C1763       C  0.98510504  0.82197472  0.24526880     0.12400
C1764       C  0.95249458  0.82714309  0.24528571    -0.13100
N1765       N  0.99719269  0.93194247  0.25484930     0.64100
H1766       H  0.05414845  0.91444748  0.25426982     0.11900
N1767       N  0.97917887  0.78403287  0.24232557     0.60700
H1768       H  0.92396183  0.80262265  0.24294107     0.08100
O1769       O  0.86244276  0.88667044  0.28081732    -0.40800
O1770       O  0.82781002  0.82421823  0.27700457    -0.39900
O1771       O  0.90870798  0.84651528  0.21821519    -0.39900
O1772       O  0.94335581  0.90958700  0.22093469    -0.37600
O1773       O  0.96804214  0.75876289  0.25102463    -0.38500
O1774       O  0.97280961  0.77261297  0.23095573    -0.34700
O1775       O  0.99107087  0.93850558  0.26607019    -0.36100
O1776       O  0.99676573  0.95336341  0.24603908    -0.40400
C1777       C  0.46978424  0.85919865  0.24810678    -0.14100
C1778       C  0.45450417  0.85472659  0.23582773     0.16300
C1779       C  0.47550988  0.85116118  0.22561088     0.02600
C1780       C  0.51046704  0.85118982  0.22793162    -0.12600
C1781       C  0.52630186  0.85656274  0.24021198    -0.03700
C1782       C  0.50552883  0.86101825  0.25037364     0.01800
C1783       C  0.41907982  0.85836593  0.23421329     0.08700
N1784       N  0.46409628  0.85112568  0.21276449     0.65000
H1785       H  0.52621815  0.84874889  0.21991221     0.17900
N1786       N  0.52020021  0.86807257  0.26304710     0.75500
H1787       H  0.45430635  0.86262076  0.25603154     0.09400
C1788       C  0.38291425  0.82733866  0.22994287     0.03100
C1789       C  0.34949016  0.83107264  0.23047183    -0.05600
C1790       C  0.35040584  0.86410401  0.23587163    -0.24000
C1791       C  0.38696681  0.89569361  0.23970251     0.12400
C1792       C  0.42068278  0.89265220  0.23870112    -0.13100
N1793       N  0.37852213  0.79063041  0.22605546     0.64100
H1794       H  0.32218136  0.80696054  0.22715975     0.11900
N1795       N  0.39089114  0.93150224  0.24435070     0.60700
H1796       H  0.44833296  0.91691703  0.24190171     0.08100
O1797       O  0.50656963  0.83993979  0.27078420    -0.40800
O1798       O  0.53660554  0.90265675  0.26727634    -0.39900
O1799       O  0.47979577  0.88319294  0.20683059    -0.39900
O1800       O  0.45017817  0.81969528  0.20650637    -0.37600
O1801       O  0.39496795  0.93819107  0.25610738    -0.38500
O1802       O  0.40197581  0.95992758  0.23680845    -0.34700
O1803       O  0.36668638  0.76332306  0.23407710    -0.36100
O1804       O  0.37342542  0.78186823  0.21444555    -0.40400
C1805       C  0.62088297  0.74175430  0.17450360    -0.14100
C1806       C  0.63464614  0.71522699  0.17394183     0.16300
C1807       C  0.65907040  0.71528998  0.18369233     0.02600
C1808       C  0.66743286  0.74014387  0.19408867    -0.12600
C1809       C  0.65226413  0.76556461  0.19498747    -0.03700
C1810       C  0.62951694  0.76694761  0.18485285     0.01800
C1811       C  0.62383972  0.68871991  0.16290500     0.08700
N1812       N  0.67476469  0.68959246  0.18342823     0.65000
H1813       H  0.68518567  0.73870542  0.20168106     0.17900
N1814       N  0.61617803  0.79457475  0.18457465     0.75500
H1815       H  0.60355505  0.74317810  0.16676636     0.09400
C1816       C  0.58437224  0.66236276  0.15997620     0.03100
C1817       C  0.57483948  0.64004795  0.14894736    -0.05600
C1818       C  0.60383795  0.64320840  0.14055789    -0.24000
C1819       C  0.64351608  0.66936667  0.14356720     0.12400
C1820       C  0.65306972  0.69186897  0.15467095    -0.13100
N1821       N  0.55345546  0.65734224  0.16817689     0.64100
H1822       H  0.54422131  0.61986340  0.14699571     0.11900
N1823       N  0.67442769  0.67480508  0.13531222     0.60700
H1824       H  0.68345781  0.71272489  0.15669236     0.08100
O1825       O  0.58029713  0.78239221  0.18626671    -0.40800
O1826       O  0.63652122  0.82657739  0.17883162    -0.39900
O1827       O  0.71038132  0.70348369  0.18070789    -0.39900
O1828       O  0.65721550  0.65761030  0.18937227    -0.37600
O1829       O  0.68819241  0.70312862  0.12764283    -0.38500
O1830       O  0.69470797  0.65937019  0.13820554    -0.34700
O1831       O  0.53310948  0.67259441  0.16513750    -0.36100
O1832       O  0.53967846  0.62929143  0.17594731    -0.40400
C1833       C  0.21390948  0.08426450  0.24495896    -0.14100
C1834       C  0.17945066  0.08316088  0.24858507     0.16300
C1835       C  0.14625430  0.04707319  0.25151272     0.02600
C1836       C  0.14842717  0.01252595  0.25120657    -0.12600
C1837       C  0.18320343  0.01343661  0.24755580    -0.03700
C1838       C  0.21600873  0.04994597  0.24426903     0.01800
C1839       C  0.17800375  0.11981524  0.24836747     0.08700
N1840       N  0.10997889  0.04527985  0.25429108     0.65000
H1841       H  0.12260683  0.98482935  0.25342291     0.17900
N1842       N  0.25211145  0.05314957  0.24042516     0.75500
H1843       H  0.23928850  0.11200978  0.24245768     0.09400
C1844       C  0.19036992  0.14548880  0.25879625     0.03100
C1845       C  0.18989729  0.18064005  0.25805314    -0.05600
C1846       C  0.17814761  0.19132665  0.24691870    -0.24000
C1847       C  0.16556061  0.16531155  0.23645176     0.12400
C1848       C  0.16543737  0.12981291  0.23731850    -0.13100
N1849       N  0.20459272  0.13689552  0.27008033     0.64100
H1850       H  0.20009921  0.20033525  0.26611433     0.11900
N1851       N  0.15175560  0.17368753  0.22501635     0.60700
H1852       H  0.15581558  0.11005549  0.22926979     0.08100
O1853       O  0.27932292  0.06439342  0.24846248    -0.40800
O1854       O  0.26063669  0.05742835  0.22879985    -0.39900
O1855       O  0.08787656  0.04280064  0.24525601    -0.39900
O1856       O  0.10522990  0.05642946  0.26501071    -0.37600
O1857       O  0.17373927  0.18482741  0.21543139    -0.38500
O1858       O  0.11539151  0.15892063  0.22344577    -0.34700
O1859       O  0.24091209  0.15064477  0.27136755    -0.36100
O1860       O  0.18302779  0.12542044  0.27975727    -0.40400
C1861       C  0.18463104  0.57504776  0.25131243    -0.14100
C1862       C  0.18287200  0.58671469  0.23890448     0.16300
C1863       C  0.18449359  0.56451685  0.22869441     0.02600
C1864       C  0.18646824  0.53063271  0.23106952    -0.12600
C1865       C  0.18780870  0.51854196  0.24349520    -0.03700
C1866       C  0.18751054  0.54162705  0.25370875     0.01800
C1867       C  0.18172437  0.62340452  0.23709247     0.08700
N1868       N  0.18409351  0.57565608  0.21585036     0.65000
H1869       H  0.18673895  0.51354077  0.22306345     0.17900
N1870       N  0.19281130  0.53336415  0.26649815     0.75500
H1871       H  0.18482243  0.59269327  0.25922136     0.09400
C1872       C  0.14883223  0.62603927  0.24084271     0.03100
C1873       C  0.15059948  0.66227282  0.24098410    -0.05600
C1874       C  0.18485238  0.69652313  0.23762190    -0.24000
C1875       C  0.21774490  0.69411408  0.23376962     0.12400
C1876       C  0.21590067  0.65762854  0.23341960    -0.13100
N1877       N  0.11352176  0.59239736  0.24485007     0.64100
H1878       H  0.12507358  0.66366060  0.24397302     0.11900
N1879       N  0.25409457  0.72882879  0.23134900     0.60700
H1880       H  0.24183547  0.65627933  0.23096706     0.08100
O1881       O  0.16355492  0.51745160  0.27373939    -0.40800
O1882       O  0.22658533  0.55172770  0.27130549    -0.39900
O1883       O  0.21570267  0.59119693  0.20970891    -0.39900
O1884       O  0.15218965  0.55921500  0.20983117    -0.37600
O1885       O  0.26227875  0.74179215  0.22017996    -0.38500
O1886       O  0.27306560  0.75077338  0.24050842    -0.34700
O1887       O  0.10634097  0.58725278  0.25655661    -0.36100
O1888       O  0.08545497  0.57650075  0.23710715    -0.40400
C1889       C  0.95589854  0.16229639  0.24982323    -0.14100
C1890       C  0.95660729  0.13043206  0.25541310     0.16300
C1891       C  0.99239504  0.13563687  0.26007205     0.02600
C1892       C  0.02647667  0.17226928  0.25898402    -0.12600
C1893       C  0.02608627  0.20407247  0.25307967    -0.03700
C1894       C  0.98995250  0.19873601  0.24856085     0.01800
C1895       C  0.92049956  0.09157884  0.25463532     0.08700
N1896       N  0.99540933  0.10375698  0.26523022     0.65000
H1897       H  0.05379562  0.17530689  0.26235499     0.17900
N1898       N  0.98675076  0.22991064  0.24289352     0.75500
H1899       H  0.92860945  0.15856517  0.24612262     0.09400
C1900       C  0.89691003  0.07250633  0.26524286     0.03100
C1901       C  0.86111643  0.03770578  0.26359000    -0.05600
C1902       C  0.84743360  0.02216276  0.25145196    -0.24000
C1903       C  0.87087533  0.04189914  0.24083580     0.12400
C1904       C  0.90711540  0.07578409  0.24255529    -0.13100
N1905       N  0.90720652  0.08940573  0.27760086     0.64100
H1906       H  0.84323760  0.02357377  0.27183217     0.11900
N1907       N  0.85867496  0.02808812  0.22820789     0.60700
H1908       H  0.92461488  0.09059360  0.23430468     0.08100
O1909       O  0.98543467  0.23144016  0.23097265    -0.40800
O1910       O  0.97322923  0.24718611  0.24944476    -0.39900
O1911       O  0.00802970  0.08652878  0.25824864    -0.39900
O1912       O  0.99778673  0.10159768  0.27709123    -0.37600
O1913       O  0.84477954  0.04458524  0.22142308    -0.38500
O1914       O  0.87174951  0.00828645  0.22291948    -0.34700
O1915       O  0.89282379  0.10978303  0.28147540    -0.36100
O1916       O  0.91991320  0.07473554  0.28561466    -0.40400
C1917       C  0.39580866  0.57646098  0.23126727    -0.14100
C1918       C  0.41686529  0.59162720  0.24250040     0.16300
C1919       C  0.40116250  0.57178038  0.25398982     0.02600
C1920       C  0.36607902  0.53595420  0.25392112    -0.12600
C1921       C  0.34550246  0.51974321  0.24260018    -0.03700
C1922       C  0.36025166  0.54110341  0.23119882     0.01800
C1923       C  0.45459752  0.62868003  0.24192097     0.08700
N1924       N  0.41942799  0.58825295  0.26586079     0.65000
H1925       H  0.35459316  0.52102979  0.26284802     0.17900
N1926       N  0.34051610  0.52697689  0.21936911     0.75500
H1927       H  0.40728425  0.59207311  0.22243825     0.09400
C1928       C  0.49049554  0.62920991  0.24253054     0.03100
C1929       C  0.52555696  0.66485317  0.24186814    -0.05600
C1930       C  0.52572317  0.70024098  0.24030679    -0.24000
C1931       C  0.48974355  0.69953150  0.23902375     0.12400
C1932       C  0.45457952  0.66380121  0.23987828    -0.13100
N1933       N  0.49202152  0.59385117  0.24343435     0.64100
H1934       H  0.55295701  0.66488620  0.24260728     0.11900
N1935       N  0.48815312  0.73476979  0.23764487     0.60700
H1936       H  0.42705919  0.66350191  0.23911506     0.08100
O1937       O  0.35260104  0.51066158  0.21177861    -0.40800
O1938       O  0.31992454  0.54072551  0.21515342    -0.39900
O1939       O  0.40675928  0.60643552  0.27234667    -0.39900
O1940       O  0.43881499  0.57499607  0.27132224    -0.37600
O1941       O  0.48140741  0.74383230  0.22684501    -0.38500
O1942       O  0.48239119  0.74992009  0.24733891    -0.34700
O1943       O  0.49882586  0.58026765  0.23354964    -0.36100
O1944       O  0.49842563  0.58366428  0.25408806    -0.40400
C1945       C  0.00188752  0.54497355  0.01490534    -0.14100
C1946       C  0.03187285  0.58127128  0.01066194     0.16300
C1947       C  0.05244733  0.61132263  0.01954887     0.02600
C1948       C  0.04517527  0.60349890  0.03250414    -0.12600
C1949       C  0.01686784  0.56622897  0.03694660    -0.03700
C1950       C  0.99372492  0.53729621  0.02784490     0.01800
C1951       C  0.03919346  0.58682107  0.99684866     0.08700
N1952       N  0.08005347  0.65019446  0.01565031     0.65000
H1953       H  0.06234764  0.62691475  0.03913632     0.17900
N1954       N  0.96217996  0.49979922  0.03137173     0.75500
H1955       H  0.98469101  0.52219613  0.00807332     0.09400
C1956       C  0.06751532  0.58052442  0.99089960     0.03100
C1957       C  0.06853228  0.57862831  0.97764796    -0.05600
C1958       C  0.04130239  0.58228778  0.97002991    -0.24000
C1959       C  0.01376681  0.59009693  0.97611101     0.12400
C1960       C  0.01310710  0.59222972  0.98934992    -0.13100
N1961       N  0.09402930  0.57364277  0.99814932     0.64100
H1962       H  0.08973132  0.57237700  0.97336670     0.11900
N1963       N  0.98572601  0.59542270  0.96914005     0.60700
H1964       H  0.99097792  0.59669872  0.99384587     0.08100
O1965       O  0.96663930  0.47038512  0.03033480    -0.40800
O1966       O  0.92795718  0.49462468  0.03126946    -0.39900
O1967       O  0.06908972  0.67521942  0.01498863    -0.39900
O1968       O  0.11605628  0.66189378  0.01671856    -0.37600
O1969       O  0.95078452  0.56769682  0.96869192    -0.38500
O1970       O  0.99281152  0.62983135  0.96696135    -0.34700
O1971       O  0.08687331  0.53889520  0.99958810    -0.36100
O1972       O  0.12850660  0.60144134  0.99976928    -0.40400
C1973       C  0.33810801  0.56640889  0.10385408    -0.14100
C1974       C  0.30492541  0.52933299  0.10212244     0.16300
C1975       C  0.31017740  0.49713114  0.09942484     0.02600
C1976       C  0.34780295  0.50272444  0.09811906    -0.12600
C1977       C  0.38097643  0.53985410  0.09950555    -0.03700
C1978       C  0.37595203  0.57195605  0.10262739     0.01800
C1979       C  0.26580645  0.52605035  0.10118167     0.08700
N1980       N  0.27770549  0.45840790  0.09791886     0.65000
H1981       H  0.35105727  0.47762196  0.09594207     0.17900
N1982       N  0.40854312  0.61075791  0.10371983     0.75500
H1983       H  0.33467727  0.59163664  0.10553910     0.09400
C1984       C  0.25011108  0.53888090  0.11083270     0.03100
C1985       C  0.21413902  0.53715805  0.10897823    -0.05600
C1986       C  0.19282226  0.52271358  0.09763566    -0.24000
C1987       C  0.20911572  0.51045911  0.08791868     0.12400
C1988       C  0.24517714  0.51255359  0.08977542    -0.13100
N1989       N  0.26953161  0.55272006  0.12272718     0.64100
H1990       H  0.20270853  0.54684222  0.11662091     0.11900
N1991       N  0.19008212  0.49616872  0.07599732     0.60700
H1992       H  0.25754013  0.50413903  0.08206652     0.08100
O1993       O  0.41995747  0.62519570  0.11461706    -0.40800
O1994       O  0.41770382  0.63349855  0.09433644    -0.39900
O1995       O  0.26872628  0.44396656  0.08692549    -0.39900
O1996       O  0.26697088  0.43556327  0.10730211    -0.37600
O1997       O  0.20128907  0.51903272  0.06661293    -0.38500
O1998       O  0.17181944  0.45969150  0.07405694    -0.34700
O1999       O  0.28626686  0.58892945  0.12509658    -0.36100
O2000       O  0.25977000  0.52893518  0.13183392    -0.40400
C2001       C  0.74878070  0.53596726  0.07430385    -0.14100
C2002       C  0.76246208  0.52723807  0.08541406     0.16300
C2003       C  0.74069241  0.52047114  0.09669243     0.02600
C2004       C  0.70680219  0.52330540  0.09669882    -0.12600
C2005       C  0.69326520  0.53249254  0.08566104    -0.03700
C2006       C  0.71448637  0.53845926  0.07429335     0.01800
C2007       C  0.80152884  0.52995873  0.08546264     0.08700
N2008       N  0.75213284  0.51016749  0.10826282     0.65000
H2009       H  0.69070563  0.51791328  0.10548033     0.17900
N2010       N  0.70329372  0.54943852  0.06282621     0.75500
H2011       H  0.76568042  0.54254253  0.06566781     0.05800
C2012       C  0.81161915  0.50840447  0.07710154     0.03100
C2013       C  0.84868513  0.51185166  0.07786875    -0.05600
C2014       C  0.87665427  0.53668962  0.08678035    -0.24000
C2015       C  0.86709383  0.55995541  0.09463470     0.12400
C2016       C  0.83006562  0.55636405  0.09384534    -0.13100
N2017       N  0.78442562  0.48187369  0.06802121     0.64100
H2018       H  0.85503372  0.49391975  0.07163034     0.11900
N2019       N  0.89432271  0.58764936  0.10347412     0.60700
H2020       H  0.82363693  0.57470657  0.09985687     0.08100
O2021       O  0.71835705  0.58536238  0.06023454    -0.40800
O2022       O  0.68889375  0.52469632  0.05396990    -0.39900
O2023       O  0.76744223  0.53564785  0.11688304    -0.39900
O2024       O  0.73626064  0.47444738  0.11122818    -0.37600
O2025       O  0.91385873  0.62317617  0.10025790    -0.38500
O2026       O  0.88992267  0.57920202  0.11510932    -0.34700
O2027       O  0.78812189  0.49240414  0.05657863    -0.36100
O2028       O  0.76617207  0.44576790  0.07055502    -0.40400
C2029       C  0.25561486  0.72606037  0.10617561    -0.14100
C2030       C  0.25374458  0.75870175  0.10181463     0.16300
C2031       C  0.21794971  0.75305849  0.09692874     0.02600
C2032       C  0.18546139  0.71542703  0.09628014    -0.12600
C2033       C  0.18750297  0.68254197  0.10024748    -0.03700
C2034       C  0.22302190  0.68818438  0.10543818     0.01800
C2035       C  0.29042480  0.79704006  0.10068780     0.08700
N2036       N  0.21407400  0.78501570  0.09229056     0.65000
H2037       H  0.15842609  0.71193812  0.09243612     0.17900
N2038       N  0.22764160  0.65585944  0.10911919     0.75500
H2039       H  0.28316674  0.72964823  0.10951559     0.09400
C2040       C  0.31535863  0.81615026  0.11108740     0.03100
C2041       C  0.35009739  0.85171616  0.10925224    -0.05600
C2042       C  0.36128872  0.86861516  0.09715718    -0.24000
C2043       C  0.33706135  0.84845230  0.08670206     0.12400
C2044       C  0.30213231  0.81326687  0.08858318    -0.13100
N2045       N  0.30613189  0.80011292  0.12357398     0.64100
H2046       H  0.36831639  0.86628658  0.11741661     0.11900
N2047       N  0.34831584  0.86176683  0.07400356     0.60700
H2048       H  0.28455261  0.79780396  0.08040215     0.08100
O2049       O  0.22987151  0.64986550  0.12075200    -0.40800
O2050       O  0.24050964  0.64131459  0.10112149    -0.39900
O2051       O  0.21369012  0.78968216  0.08047249    -0.39900
O2052       O  0.19921214  0.79974122  0.09942896    -0.37600
O2053       O  0.36552859  0.84788184  0.06759845    -0.38500
O2054       O  0.33136295  0.87723809  0.06828591    -0.34700
O2055       O  0.32349742  0.78299017  0.12786271    -0.36100
O2056       O  0.29109373  0.81326232  0.13127372    -0.40400
C2057       C  0.75723617  0.23282143  0.09422278    -0.14100
C2058       C  0.75988892  0.26095747  0.08556289     0.16300
C2059       C  0.72766411  0.25154537  0.07758590     0.02600
C2060       C  0.69321634  0.21521913  0.07875700    -0.12600
C2061       C  0.68976392  0.18737441  0.08776237    -0.03700
C2062       C  0.72289809  0.19639121  0.09540053     0.01800
C2063       C  0.79656159  0.29970838  0.08530655     0.08700
N2064       N  0.72941219  0.27798819  0.06803652     0.65000
H2065       H  0.66876195  0.20916695  0.07264202     0.17900
N2066       N  0.72270815  0.16907078  0.10434097     0.75500
H2067       H  0.78202426  0.23938559  0.10025552     0.09400
C2068       C  0.79921610  0.33257915  0.09164309     0.03100
C2069       C  0.83542408  0.36700520  0.09286849    -0.05600
C2070       C  0.86916967  0.36960103  0.08773181    -0.24000
C2071       C  0.86675320  0.33770543  0.08102398     0.12400
C2072       C  0.83066857  0.30274368  0.07999282    -0.13100
N2073       N  0.76570741  0.33144718  0.09715626     0.64100
H2074       H  0.83721145  0.39181300  0.09791034     0.11900
N2075       N  0.90079889  0.34114275  0.07505195     0.60700
H2076       H  0.82925991  0.27783658  0.07514645     0.08100
O2077       O  0.71857353  0.17368819  0.11595210    -0.40800
O2078       O  0.73721086  0.14814924  0.10118315    -0.39900
O2079       O  0.73664166  0.27272561  0.05679925    -0.39900
O2080       O  0.71186475  0.29688725  0.06990171    -0.37600
O2081       O  0.92605884  0.33876249  0.08173203    -0.38500
O2082       O  0.91059114  0.35736087  0.06433486    -0.34700
O2083       O  0.76136052  0.32771465  0.10900752    -0.36100
O2084       O  0.74899059  0.34662184  0.09113578    -0.40400
C2085       C  0.14091958  0.44510863  0.17926716    -0.14100
C2086       C  0.10052965  0.42830782  0.17760999     0.16300
C2087       C  0.07510456  0.39922518  0.18611641     0.02600
C2088       C  0.09030156  0.38841709  0.19631242    -0.12600
C2089       C  0.13081079  0.40563879  0.19821616    -0.03700
C2090       C  0.15631838  0.43391750  0.18934091     0.01800
C2091       C  0.08600425  0.43894942  0.16622385     0.08700
N2092       N  0.03369318  0.38071699  0.18470023     0.65000
H2093       H  0.06998872  0.36669375  0.20288927     0.17900
N2094       N  0.19777120  0.45066577  0.19002200     0.75500
H2095       H  0.16070294  0.46644639  0.17248409     0.09400
C2096       C  0.09148474  0.47686606  0.16457282     0.03100
C2097       C  0.08185024  0.48722150  0.15300982    -0.05600
C2098       C  0.06662286  0.46042091  0.14295157    -0.24000
C2099       C  0.06072383  0.42228760  0.14465962     0.12400
C2100       C  0.07046024  0.41196666  0.15624492    -0.13100
N2101       N  0.10635143  0.50511571  0.17456102     0.64100
H2102       H  0.08614168  0.51646171  0.15191088     0.11900
N2103       N  0.04741486  0.39451609  0.13453656     0.60700
H2104       H  0.06720399  0.38312966  0.15730237     0.08100
O2105       O  0.21820868  0.48546857  0.19389202    -0.40800
O2106       O  0.21373531  0.43603276  0.18333818    -0.39900
O2107       O  0.01534574  0.34633750  0.18032069    -0.39900
O2108       O  0.01534305  0.39339626  0.19107230    -0.37600
O2109       O  0.07235004  0.39284754  0.12750530    -0.38500
O2110       O  0.01320144  0.36548887  0.13496931    -0.34700
O2111       O  0.14075573  0.53369082  0.17376877    -0.36100
O2112       O  0.08246725  0.50768649  0.18185984    -0.40400
C2113       C  0.87063722  0.67243855  0.65714660    -0.14100
C2114       C  0.90453276  0.70548856  0.66158265     0.16300
C2115       C  0.93239972  0.73072864  0.65277703     0.02600
C2116       C  0.92476996  0.72413873  0.63979279    -0.12600
C2117       C  0.88926796  0.69287975  0.63516324    -0.03700
C2118       C  0.86268777  0.66579554  0.64411064     0.01800
C2119       C  0.90908967  0.71365219  0.67539308     0.08700
N2120       N  0.96806354  0.76409563  0.65679296     0.65000
H2121       H  0.94646169  0.74499419  0.63332798     0.17900
N2122       N  0.82675650  0.63234757  0.64033950     0.75500
H2123       H  0.84943618  0.65230242  0.66388730     0.09400
C2124       C  0.89429913  0.73581563  0.68112659     0.03100
C2125       C  0.89469627  0.73939943  0.69433545    -0.05600
C2126       C  0.90939089  0.72092644  0.70217411    -0.24000
C2127       C  0.92571380  0.69985090  0.69631300     0.12400
C2128       C  0.92522147  0.69636156  0.68305249    -0.13100
N2129       N  0.87721430  0.75361917  0.67368820     0.64100
H2130       H  0.88175549  0.75541930  0.69846822     0.11900
N2131       N  0.94340414  0.68218501  0.70355786     0.60700
H2132       H  0.93683157  0.67937964  0.67872219     0.08100
O2133       O  0.79542428  0.63311459  0.64172331    -0.40800
O2134       O  0.82513059  0.59961422  0.63957688    -0.39900
O2135       O  0.99949172  0.76328107  0.65585000    -0.39900
O2136       O  0.96964778  0.79679230  0.65758110    -0.37600
O2137       O  0.92415059  0.64585164  0.70569901    -0.38500
O2138       O  0.98019082  0.69966339  0.70440069    -0.34700
O2139       O  0.84049706  0.73664001  0.67266044    -0.36100
O2140       O  0.89726623  0.78965935  0.67118613    -0.40400
C2141       C  0.70137693  0.95012939  0.34848219    -0.14100
C2142       C  0.68369985  0.91611933  0.34110952     0.16300
C2143       C  0.66125897  0.87949518  0.34705126     0.02600
C2144       C  0.65715697  0.87751960  0.36021960    -0.12600
C2145       C  0.67565833  0.91141638  0.36774735    -0.03700
C2146       C  0.69764272  0.94825056  0.36167725     0.01800
C2147       C  0.69054850  0.91955140  0.32731529     0.08700
N2148       N  0.64464146  0.84376200  0.34001005     0.65000
H2149       H  0.64095867  0.84890288  0.36459194     0.17900
N2150       N  0.71609045  0.98416437  0.36863866     0.75500
H2151       H  0.71858905  0.97838799  0.34395424     0.09400
C2152       C  0.66104375  0.91419002  0.31875970     0.03100
C2153       C  0.66792476  0.91567186  0.30579020    -0.05600
C2154       C  0.70410799  0.92274739  0.30093520    -0.24000
C2155       C  0.73487695  0.93162085  0.30960612     0.12400
C2156       C  0.72766723  0.92963830  0.32268107    -0.13100
N2157       N  0.62410575  0.90808940  0.32301908     0.64100
H2158       H  0.64389092  0.90994694  0.29952432     0.11900
N2159       N  0.77357868  0.94325978  0.30545873     0.60700
H2160       H  0.75109510  0.93561500  0.32926986     0.08100
O2161       O  0.69982576  0.00472780  0.36896538    -0.40800
O2162       O  0.75223783  0.00026338  0.37092746    -0.39900
O2163       O  0.66293371  0.82516078  0.33953873    -0.39900
O2164       O  0.60832748  0.82556388  0.33791608    -0.37600
O2165       O  0.79775829  0.97932947  0.30423216    -0.38500
O2166       O  0.78632358  0.91987256  0.30692506    -0.34700
O2167       O  0.61895097  0.93715941  0.32359921    -0.36100
O2168       O  0.59460870  0.87422320  0.32223257    -0.40400
C2169       C  0.74059394  0.74537162  0.51351179    -0.14100
C2170       C  0.76944292  0.76719759  0.50452440     0.16300
C2171       C  0.80882282  0.77898711  0.50737465     0.02600
C2172       C  0.81844041  0.76955038  0.51908415    -0.12600
C2173       C  0.78962794  0.74778165  0.52810172    -0.03700
C2174       C  0.75011098  0.73513962  0.52513162     0.01800
C2175       C  0.75839352  0.78159191  0.49312389     0.08700
N2176       N  0.83949708  0.79977528  0.49843205     0.65000
H2177       H  0.84882791  0.77890698  0.52103049     0.17900
N2178       N  0.71926284  0.71319384  0.53389470     0.75500
H2179       H  0.71048178  0.73729334  0.51170904     0.09400
C2180       C  0.72763156  0.75651505  0.48492126     0.03100
C2181       C  0.71670401  0.77226690  0.47488899    -0.05600
C2182       C  0.73587874  0.81282654  0.47267136    -0.24000
C2183       C  0.76619263  0.83786232  0.48109607     0.12400
C2184       C  0.77673623  0.82205326  0.49117785    -0.13100
N2185       N  0.70783301  0.71491360  0.48632143     0.64100
H2186       H  0.69358139  0.75227601  0.46859583     0.11900
N2187       N  0.78649190  0.87947382  0.47981236     0.60700
H2188       H  0.79908266  0.84184194  0.49772172     0.08100
O2189       O  0.69832656  0.67669242  0.53230210    -0.40800
O2190       O  0.70599222  0.73082529  0.54038312    -0.39900
O2191       O  0.86282254  0.83582785  0.50018469    -0.39900
O2192       O  0.85042126  0.78060361  0.49168236    -0.37600
O2193       O  0.77687552  0.89910570  0.48686864    -0.38500
O2194       O  0.82029271  0.89611560  0.47504931    -0.34700
O2195       O  0.67396012  0.69776625  0.49103524    -0.36100
O2196       O  0.71821483  0.69550862  0.47946436    -0.40400
C2197       C  0.34308858  0.20899961  0.68165538    -0.14100
C2198       C  0.35412838  0.24622130  0.67684345     0.16300
C2199       C  0.35718848  0.27551794  0.68530264     0.02600
C2200       C  0.35224759  0.26785363  0.69833511    -0.12600
C2201       C  0.34328521  0.23116859  0.70315327    -0.03700
C2202       C  0.33802996  0.20131398  0.69463577     0.01800
C2203       C  0.36076879  0.25266906  0.66296617     0.08700
N2204       N  0.36598445  0.31338426  0.68096352     0.65000
H2205       H  0.35595973  0.29094023  0.70475783     0.17900
N2206       N  0.33075392  0.16397896  0.69898854     0.75500
H2207       H  0.33880018  0.18563234  0.67528578     0.09400
C2208       C  0.38595002  0.24293556  0.65638340     0.03100
C2209       C  0.38786698  0.24491008  0.64316908    -0.05600
C2210       C  0.36460644  0.25563514  0.63608250    -0.24000
C2211       C  0.33993105  0.26615019  0.64271788     0.12400
C2212       C  0.33838958  0.26458785  0.65598361    -0.13100
N2213       N  0.40916350  0.22989090  0.66286923     0.64100
H2214       H  0.40667905  0.23623996  0.63843526     0.11900
N2215       N  0.31580402  0.27813293  0.63628801     0.60700
H2216       H  0.31810842  0.27107310  0.66080732     0.08100
O2217       O  0.35907744  0.15774656  0.69969402    -0.40800
O2218       O  0.29650614  0.13512569  0.69820927    -0.39900
O2219       O  0.33849877  0.32083926  0.68003879    -0.39900
O2220       O  0.40057769  0.34148413  0.68197960    -0.37600
O2221       O  0.28017058  0.25332709  0.63458411    -0.38500
O2222       O  0.32629617  0.31407300  0.63616418    -0.34700
O2223       O  0.39894317  0.19402326  0.66239619    -0.36100
O2224       O  0.44435223  0.25449075  0.66533987    -0.40400
C2225       C  0.12457054  0.00690091  0.57284337    -0.14100
C2226       C  0.12465032  0.97121195  0.57286650     0.16300
C2227       C  0.16085599  0.97207045  0.57252768     0.02600
C2228       C  0.19576402  0.00792592  0.57300524    -0.12600
C2229       C  0.19551059  0.04322584  0.57327912    -0.03700
C2230       C  0.15970501  0.04281511  0.57295420     0.01800
C2231       C  0.08657613  0.93393315  0.57300270     0.08700
N2232       N  0.16309931  0.93728562  0.57093875     0.65000
H2233       H  0.22335944  0.00822093  0.57291900     0.17900
N2234       N  0.15880978  0.07865116  0.57339775     0.75500
H2235       H  0.09708687  0.00680390  0.57294778     0.09400
C2236       C  0.07457889  0.90794908  0.58337333     0.03100
C2237       C  0.03722307  0.87484826  0.58346606    -0.05600
C2238       C  0.01056033  0.86641365  0.57344547    -0.24000
C2239       C  0.02297982  0.89236669  0.56294915     0.12400
C2240       C  0.06050377  0.92566312  0.56289207    -0.13100
N2241       N  0.09886219  0.91541363  0.59426064     0.64100
H2242       H  0.02898379  0.85601495  0.59170834     0.11900
N2243       N  0.99839378  0.88571248  0.55221024     0.60700
H2244       H  0.06930882  0.94545389  0.55487716     0.08100
O2245       O  0.15911298  0.09538594  0.56317229    -0.40800
O2246       O  0.16696487  0.09771520  0.58363749    -0.39900
O2247       O  0.16630676  0.92733335  0.55984121    -0.39900
O2248       O  0.17564352  0.92587553  0.58003438    -0.37600
O2249       O  0.00408340  0.87127786  0.54232202    -0.38500
O2250       O  0.98021247  0.90436002  0.55133462    -0.34700
O2251       O  0.09453644  0.93302910  0.60354969    -0.36100
O2252       O  0.11319632  0.89358334  0.59624236    -0.40400
C2253       C  0.57943649  0.40851847  0.59175096    -0.14100
C2254       C  0.58154622  0.44150941  0.58594304     0.16300
C2255       C  0.54731309  0.43806046  0.58043081     0.02600
C2256       C  0.51257333  0.40206727  0.58051210    -0.12600
C2257       C  0.51038896  0.36879779  0.58615163    -0.03700
C2258       C  0.54431289  0.37257724  0.59210409     0.01800
C2259       C  0.62011867  0.47799330  0.58470576     0.08700
N2260       N  0.54687761  0.47086617  0.57484694     0.65000
H2261       H  0.48691819  0.40031820  0.57611959     0.17900
N2262       N  0.54432617  0.34033524  0.59826656     0.75500
H2263       H  0.60551910  0.41021051  0.59573187     0.09400
C2264       C  0.64518951  0.49627560  0.59515082     0.03100
C2265       C  0.68087361  0.53076525  0.59339159    -0.05600
C2266       C  0.69276821  0.54791128  0.58137150    -0.24000
C2267       C  0.66856707  0.52835665  0.57081132     0.12400
C2268       C  0.63288874  0.49382439  0.57259990    -0.13100
N2269       N  0.63471357  0.48113975  0.60770731     0.64100
H2270       H  0.69887378  0.54471056  0.60164898     0.11900
N2271       N  0.67972442  0.54232175  0.55815557     0.60700
H2272       H  0.61515094  0.47899902  0.56438024     0.08100
O2273       O  0.54288850  0.33881368  0.61020741    -0.40800
O2274       O  0.55774176  0.32167460  0.59242912    -0.39900
O2275       O  0.54484639  0.47237506  0.56294382    -0.39900
O2276       O  0.53637819  0.49046499  0.58155533    -0.37600
O2277       O  0.69578388  0.52789345  0.55142695    -0.38500
O2278       O  0.66334448  0.55891208  0.55276248    -0.34700
O2279       O  0.65103731  0.46360710  0.61249204    -0.36100
O2280       O  0.62014217  0.49579249  0.61499998    -0.40400
C2281       C  0.18982458  0.83822674  0.34531766    -0.14100
C2282       C  0.15150905  0.82217417  0.34079550     0.16300
C2283       C  0.12050063  0.80810723  0.34951071     0.02600
C2284       C  0.12839940  0.81213667  0.36251690    -0.12600
C2285       C  0.16691006  0.83000548  0.36715598    -0.03700
C2286       C  0.19792219  0.84240318  0.35833520     0.01800
C2287       C  0.14512461  0.81980470  0.32693090     0.08700
N2288       N  0.08077552  0.78937080  0.34538148     0.65000
H2289       H  0.10406121  0.80166588  0.36904446     0.17900
N2290       N  0.23793395  0.86211973  0.36220865     0.75500
H2291       H  0.21383061  0.84865129  0.33865250     0.09400
C2292       C  0.13976083  0.84778911  0.32032235     0.03100
C2293       C  0.13849878  0.84723816  0.30706727    -0.05600
C2294       C  0.14321226  0.81959059  0.30003703    -0.24000
C2295       C  0.14841261  0.79124795  0.30681820     0.12400
C2296       C  0.14918028  0.79172928  0.32008875    -0.13100
N2297       N  0.13776370  0.87844313  0.32684791     0.64100
H2298       H  0.13485241  0.86950981  0.30228151     0.11900
N2299       N  0.15473109  0.76272098  0.30058472     0.60700
H2300       H  0.15420258  0.77063572  0.32510657     0.08100
O2301       O  0.25741738  0.89893816  0.36124275    -0.40800
O2302       O  0.25593694  0.84320014  0.36244188    -0.39900
O2303       O  0.06096413  0.75245032  0.34551717    -0.39900
O2304       O  0.06314229  0.80863732  0.34543063    -0.37600
O2305       O  0.18921576  0.76882948  0.29976237    -0.38500
O2306       O  0.12664687  0.72800057  0.29977237    -0.34700
O2307       O  0.16808882  0.91178673  0.32748208    -0.36100
O2308       O  0.10482044  0.87567917  0.32839687    -0.40400
C2309       C  0.92183929  0.90011341  0.43103570    -0.14100
C2310       C  0.91966394  0.86375455  0.42977696     0.16300
C2311       C  0.88291957  0.82966672  0.42846149     0.02600
C2312       C  0.84922180  0.83274976  0.42765599    -0.12600
C2313       C  0.85131401  0.86926727  0.42857127    -0.03700
C2314       C  0.88806626  0.90316151  0.43063277     0.01800
C2315       C  0.95648788  0.86287519  0.42902173     0.08700
N2316       N  0.87917922  0.79172683  0.42816410     0.65000
H2317       H  0.82114235  0.80633636  0.42644005     0.17900
N2318       N  0.89204855  0.94106085  0.43185833     0.75500
H2319       H  0.95008301  0.92641853  0.43212039     0.09400
C2320       C  0.97533696  0.86788679  0.41733113     0.03100
C2321       C  0.01221944  0.87084984  0.41687733    -0.05600
C2322       C  0.03139339  0.86990484  0.42804986    -0.24000
C2323       C  0.01220525  0.86543510  0.43980782     0.12400
C2324       C  0.97504628  0.86177196  0.44014322    -0.13100
N2325       N  0.95808376  0.87224706  0.40597495     0.64100
H2326       H  0.02640353  0.87508607  0.40777019     0.11900
N2327       N  0.02943301  0.86400090  0.45154308     0.60700
H2328       H  0.96089885  0.85883699  0.44919089     0.08100
O2329       O  0.90368376  0.96379149  0.42244123    -0.40800
O2330       O  0.89574976  0.95540619  0.44280248    -0.39900
O2331       O  0.87135153  0.77236681  0.43831833    -0.39900
O2332       O  0.87266353  0.77392161  0.41772424    -0.37600
O2333       O  0.04573208  0.89448031  0.45830693    -0.38500
O2334       O  0.01746776  0.83114038  0.45674592    -0.34700
O2335       O  0.96385603  0.90573834  0.40300548    -0.36100
O2336       O  0.93020216  0.84237133  0.40086338    -0.40400
C2337       C  0.40764169  0.87847220  0.40877872    -0.14100
C2338       C  0.42793292  0.88248881  0.42005137     0.16300
C2339       C  0.41406699  0.88998060  0.43140835     0.02600
C2340       C  0.37949700  0.89157295  0.43139865    -0.12600
C2341       C  0.35823976  0.88641188  0.42019707    -0.03700
C2342       C  0.37335926  0.88070960  0.40867581     0.01800
C2343       C  0.46518631  0.88212126  0.41951699     0.08700
N2344       N  0.43421318  0.89529333  0.44312977     0.65000
H2345       H  0.36894955  0.89622234  0.44033265     0.17900
N2346       N  0.35555321  0.87864892  0.39669083     0.75500
H2347       H  0.41899398  0.87440260  0.39991442     0.09400
C2348       C  0.46688568  0.84880463  0.41553285     0.03100
C2349       C  0.50298544  0.85032988  0.41483133    -0.05600
C2350       C  0.53761019  0.88432292  0.41821735    -0.24000
C2351       C  0.53605671  0.91822095  0.42159204     0.12400
C2352       C  0.50000394  0.91679551  0.42219645    -0.13100
N2353       N  0.43223450  0.81267320  0.41271149     0.64100
H2354       H  0.50376312  0.82425669  0.41212856     0.11900
N2355       N  0.57077769  0.95471125  0.42398809     0.60700
H2356       H  0.49920984  0.94306659  0.42468526     0.08100
O2357       O  0.33568338  0.84564650  0.39144647    -0.40800
O2358       O  0.36960330  0.90903990  0.38990325    -0.39900
O2359       O  0.45380468  0.92940827  0.44764612    -0.39900
O2360       O  0.42313018  0.86632729  0.45043303    -0.37600
O2361       O  0.58570919  0.97896963  0.41503960    -0.38500
O2362       O  0.57917985  0.96679892  0.43525371    -0.34700
O2363       O  0.42518167  0.80115452  0.40135805    -0.36100
O2364       O  0.41585661  0.78806026  0.42148364    -0.40400
C2365       C  0.24696480  0.02890652  0.48938451    -0.14100
C2366       C  0.27923318  0.03233349  0.49606652     0.16300
C2367       C  0.29594874  0.00976470  0.49208642     0.02600
C2368       C  0.28095680  0.98539431  0.48142165    -0.12600
C2369       C  0.24890201  0.98220642  0.47456843    -0.03700
C2370       C  0.23163959  0.00429108  0.47879651     0.01800
C2371       C  0.29201796  0.05695700  0.50773242     0.08700
N2372       N  0.32682359  0.00948152  0.49905250     0.65000
H2373       H  0.29434452  0.96835347  0.47861850     0.17900
N2374       N  0.19927564  0.00323493  0.47235242     0.75500
H2375       H  0.23338747  0.04555276  0.49245343     0.09400
C2376       C  0.32814086  0.09230593  0.50867812     0.03100
C2377       C  0.33738159  0.11517827  0.51972699    -0.05600
C2378       C  0.31071697  0.10439150  0.52977049    -0.24000
C2379       C  0.27422514  0.06949338  0.52866952     0.12400
C2380       C  0.26547465  0.04616009  0.51779555    -0.13100
N2381       N  0.35464440  0.10697910  0.49825740     0.64100
H2382       H  0.36511390  0.14229938  0.52027337     0.11900
N2383       N  0.24619316  0.05634674  0.53867732     0.60700
H2384       H  0.23743428  0.01939860  0.51715515     0.08100
O2385       O  0.20547348  0.03129864  0.46514848    -0.40800
O2386       O  0.16525959  0.98158289  0.47662494    -0.39900
O2387       O  0.31822966  0.98236456  0.50695432    -0.39900
O2388       O  0.36085626  0.02698850  0.49448122    -0.37600
O2389       O  0.21741873  0.06183500  0.53780700    -0.38500
O2390       O  0.24421761  0.03051603  0.54618141    -0.34700
O2391       O  0.35372049  0.13210609  0.49108208    -0.36100
O2392       O  0.38546661  0.10490766  0.49871384    -0.40400
C2393       C  0.26652675  0.36706640  0.32183460    -0.14100
C2394       C  0.23232856  0.35226053  0.32903193     0.16300
C2395       C  0.19585382  0.33086255  0.32282350     0.02600
C2396       C  0.19428513  0.32606439  0.30965149    -0.12600
C2397       C  0.22845085  0.34228478  0.30229554    -0.03700
C2398       C  0.26503269  0.36221570  0.30863708     0.01800
C2399       C  0.23512989  0.36325959  0.34263516     0.08700
N2400       N  0.15994270  0.31390791  0.32970701     0.65000
H2401       H  0.16584218  0.31069777  0.30512831     0.17900
N2402       N  0.30112713  0.37729235  0.30197588     0.75500
H2403       H  0.29473561  0.38374237  0.32642601     0.09400
C2404       C  0.25634190  0.35466792  0.35161165     0.03100
C2405       C  0.25662791  0.36469460  0.36434615    -0.05600
C2406       C  0.23674422  0.38391872  0.36844646    -0.24000
C2407       C  0.21828300  0.39534765  0.35925609     0.12400
C2408       C  0.21757541  0.38481160  0.34655107    -0.13100
N2409       N  0.27677551  0.33472234  0.34814215     0.64100
H2410       H  0.27176512  0.35636137  0.37114455     0.11900
N2411       N  0.19850231  0.41602681  0.36258762     0.60700
H2412       H  0.20286276  0.39337708  0.33966836     0.08100
O2413       O  0.32157433  0.41379460  0.30032698    -0.40800
O2414       O  0.31765703  0.35697457  0.30166948    -0.39900
O2415       O  0.13917019  0.32992221  0.32917194    -0.39900
O2416       O  0.14421447  0.27841781  0.33294279    -0.37600
O2417       O  0.16168499  0.39729389  0.36326889    -0.38500
O2418       O  0.21573730  0.45255542  0.36081638    -0.34700
O2419       O  0.31360980  0.35404212  0.34754837    -0.36100
O2420       O  0.26007621  0.29811364  0.34964847    -0.40400
C2421       C  0.21856274  0.11225702  0.43326080    -0.14100
C2422       C  0.18236222  0.10891467  0.43576139     0.16300
C2423       C  0.14954704  0.07166070  0.43766670     0.02600
C2424       C  0.15316286  0.03800149  0.43663955    -0.12600
C2425       C  0.18939311  0.04108944  0.43361399    -0.03700
C2426       C  0.22247598  0.07900255  0.43225314     0.01800
C2427       C  0.17836598  0.14401600  0.43437836     0.08700
N2428       N  0.11235691  0.06793672  0.44031300     0.65000
H2429       H  0.12739393  0.00941833  0.43779366     0.17900
N2430       N  0.26067178  0.08465389  0.43022738     0.75500
H2431       H  0.24390222  0.14096887  0.43176918     0.09400
C2432       C  0.18548985  0.17027213  0.44441834     0.03100
C2433       C  0.18337141  0.20422327  0.44227285    -0.05600
C2434       C  0.17522604  0.21308266  0.43015524    -0.24000
C2435       C  0.16765541  0.18634405  0.42014879     0.12400
C2436       C  0.16909660  0.15213354  0.42238367    -0.13100
N2437       N  0.19604065  0.16360802  0.45672376     0.64100
H2438       H  0.18949327  0.22448313  0.45004404     0.11900
N2439       N  0.15762183  0.19273093  0.40772735     0.60700
H2440       H  0.16349059  0.13194455  0.41462615     0.08100
O2441       O  0.28348865  0.09363583  0.43959119    -0.40800
O2442       O  0.27497283  0.09290432  0.41922619    -0.39900
O2443       O  0.09153639  0.06804873  0.43124967    -0.39900
O2444       O  0.10542683  0.07498461  0.45137244    -0.37600
O2445       O  0.18344678  0.20473965  0.39922164    -0.38500
O2446       O  0.12210709  0.17472392  0.40446720    -0.34700
O2447       O  0.23172410  0.18048586  0.45975248    -0.36100
O2448       O  0.17057260  0.15066687  0.46535045    -0.40400
C2449       C  0.21533357  0.60360954  0.40684907    -0.14100
C2450       C  0.19806169  0.61490571  0.41624485     0.16300
C2451       C  0.17738315  0.58818462  0.42606105     0.02600
C2452       C  0.17492169  0.55148501  0.42641651    -0.12600
C2453       C  0.19258054  0.53991634  0.41711745    -0.03700
C2454       C  0.21281757  0.56677271  0.40713055     0.01800
C2455       C  0.19902062  0.65308882  0.41506177     0.08700
N2456       N  0.15948982  0.59811086  0.43602158     0.65000
H2457       H  0.15919042  0.53209498  0.43420579     0.17900
N2458       N  0.23201214  0.55816948  0.39728381     0.75500
H2459       H  0.23056510  0.62341142  0.39908579     0.09400
C2460       C  0.23424600  0.68959416  0.41495717     0.03100
C2461       C  0.23310763  0.72462644  0.41410285    -0.05600
C2462       C  0.19739228  0.72414724  0.41345499    -0.24000
C2463       C  0.16241906  0.68756828  0.41287938     0.12400
C2464       C  0.16359083  0.65269136  0.41359796    -0.13100
N2465       N  0.27125461  0.69190485  0.41656635     0.64100
H2466       H  0.26019956  0.75237845  0.41471819     0.11900
N2467       N  0.12529286  0.68511918  0.41153344     0.60700
H2468       H  0.13644147  0.62496860  0.41311824     0.08100
O2469       O  0.26881627  0.57528166  0.39750836    -0.40800
O2470       O  0.21461736  0.54577077  0.38681870    -0.39900
O2471       O  0.12286466  0.58356576  0.43591685    -0.39900
O2472       O  0.17775357  0.61073943  0.44633642    -0.37600
O2473       O  0.11158046  0.68258975  0.40054477    -0.38500
O2474       O  0.10226208  0.67378220  0.42085239    -0.34700
O2475       O  0.29381234  0.70069674  0.40717021    -0.36100
O2476       O  0.28534642  0.69639018  0.42758115    -0.40400
C2477       C  0.46251030  0.67158737  0.41538973    -0.14100
C2478       C  0.46377056  0.63749457  0.41824675     0.16300
C2479       C  0.50036432  0.64059117  0.42069309     0.02600
C2480       C  0.53417828  0.67757442  0.42114663    -0.12600
C2481       C  0.53284356  0.71187955  0.41867663    -0.03700
C2482       C  0.49652516  0.70846748  0.41540113     0.01800
C2483       C  0.42641217  0.59948114  0.41842260     0.08700
N2484       N  0.50438028  0.60666793  0.42184609     0.65000
H2485       H  0.56195751  0.67939984  0.42317476     0.17900
N2486       N  0.49297108  0.74205095  0.41274897     0.75500
H2487       H  0.43470268  0.66962498  0.41329232     0.09400
C2488       C  0.41160740  0.57737653  0.42960365     0.03100
C2489       C  0.37499964  0.54335802  0.42950875    -0.05600
C2490       C  0.35158932  0.53049154  0.41853560    -0.24000
C2491       C  0.36629141  0.55310220  0.40734303     0.12400
C2492       C  0.40331619  0.58705210  0.40742388    -0.13100
N2493       N  0.43174366  0.59019371  0.44142690     0.64100
H2494       H  0.36453408  0.52753555  0.43834589     0.11900
N2495       N  0.34445668  0.54255179  0.39579911     0.60700
H2496       H  0.41399055  0.60417371  0.39881959     0.08100
O2497       O  0.47994377  0.75478236  0.42130122    -0.40800
O2498       O  0.49078986  0.75043801  0.40134992    -0.39900
O2499       O  0.51123884  0.59308481  0.41197195    -0.39900
O2500       O  0.51395065  0.59914572  0.43243435    -0.37600
O2501       O  0.32685945  0.56057246  0.39269278    -0.38500
O2502       O  0.35283344  0.52552884  0.38728281    -0.34700
O2503       O  0.42264731  0.60961379  0.44877193    -0.36100
O2504       O  0.44674942  0.57131395  0.44612278    -0.40400
C2505       C  0.87738432  0.10634456  0.42745545    -0.14100
C2506       C  0.91267191  0.10729989  0.42996431     0.16300
C2507       C  0.91210512  0.07234237  0.43322532     0.02600
C2508       C  0.87673793  0.03698110  0.43330423    -0.12600
C2509       C  0.84163365  0.03556892  0.43009777    -0.03700
C2510       C  0.84193640  0.07089915  0.42749566     0.01800
C2511       C  0.94955759  0.14518735  0.42944392     0.08700
N2512       N  0.94731949  0.07179412  0.43581581     0.65000
H2513       H  0.87705308  0.01020773  0.43530737     0.17900
N2514       N  0.80664674  0.07155555  0.42512216     0.75500
H2515       H  0.87739914  0.13329619  0.42540849     0.09400
C2516       C  0.96263435  0.16676594  0.41811326     0.03100
C2517       C  0.99748799  0.20264221  0.41801591    -0.05600
C2518       C  0.01988200  0.21810437  0.42908187    -0.24000
C2519       C  0.00586843  0.19687701  0.44054703     0.12400
C2520       C  0.97109282  0.16072606  0.44058097    -0.13100
N2521       N  0.94149583  0.15228503  0.40651620     0.64100
H2522       H  0.00738240  0.21805279  0.40908680     0.11900
N2523       N  0.02567528  0.21175556  0.45232226     0.60700
H2524       H  0.96053844  0.14488459  0.44941833     0.08100
O2525       O  0.79867096  0.07636860  0.41392119    -0.40800
O2526       O  0.79028634  0.07857357  0.43419745    -0.39900
O2527       O  0.95531678  0.06804389  0.44712466    -0.39900
O2528       O  0.96350548  0.06375081  0.42694012    -0.37600
O2529       O  0.01514179  0.23061738  0.45938956    -0.38500
O2530       O  0.04429889  0.19658820  0.45710319    -0.34700
O2531       O  0.92346931  0.16845478  0.40200721    -0.36100
O2532       O  0.94982066  0.13196926  0.39931343    -0.40400
C2533       C  0.78900506  0.15137483  0.68025518    -0.14100
C2534       C  0.82000939  0.15542650  0.67279748     0.16300
C2535       C  0.85328042  0.15827089  0.67888177     0.02600
C2536       C  0.85566106  0.15911941  0.69213763    -0.12600
C2537       C  0.82540409  0.15706723  0.69967667    -0.03700
C2538       C  0.79105940  0.15171590  0.69349735     0.01800
C2539       C  0.81928099  0.16243780  0.65897515     0.08700
N2540       N  0.88515564  0.16057383  0.67179467     0.65000
H2541       H  0.88214738  0.16280112  0.69649782     0.17900
N2542       N  0.75781896  0.14680573  0.70038012     0.75500
H2543       H  0.76348072  0.14966006  0.67579081     0.09400
C2544       C  0.78829035  0.13669039  0.65091887     0.03100
C2545       C  0.78883032  0.14594231  0.63808109    -0.05600
C2546       C  0.81897900  0.18102523  0.63309249    -0.24000
C2547       C  0.84893183  0.20747947  0.64123043     0.12400
C2548       C  0.84878165  0.19799102  0.65400674    -0.13100
N2549       N  0.75629535  0.10083641  0.65546594     0.64100
H2550       H  0.76566024  0.12531544  0.63191629     0.11900
N2551       N  0.88105119  0.24301788  0.63659402     0.60700
H2552       H  0.87187155  0.21885472  0.66012955     0.08100
O2553       O  0.75118715  0.17494540  0.70084169    -0.40800
O2554       O  0.72995994  0.11250909  0.70227376    -0.39900
O2555       O  0.91624718  0.19319149  0.67085632    -0.39900
O2556       O  0.88655488  0.12963848  0.67004178    -0.37600
O2557       O  0.91325629  0.24441921  0.63469457    -0.38500
O2558       O  0.88073158  0.27459755  0.63812222    -0.34700
O2559       O  0.72375255  0.09889051  0.65718298    -0.36100
O2560       O  0.75702549  0.06950397  0.65383767    -0.40400
C2561       C  0.86078215  0.43481501  0.57255074    -0.14100
C2562       C  0.85236069  0.44410247  0.58451455     0.16300
C2563       C  0.84112779  0.41604534  0.59430117     0.02600
C2564       C  0.84085291  0.38092198  0.59213566    -0.12600
C2565       C  0.85159770  0.37256008  0.58036313    -0.03700
C2566       C  0.86099327  0.39995184  0.57038538     0.01800
C2567       C  0.85363736  0.48224947  0.58614450     0.08700
N2568       N  0.83079873  0.42275330  0.60662860     0.65000
H2569       H  0.83282948  0.36042450  0.59992127     0.17900
N2570       N  0.87083145  0.39335060  0.55795863     0.75500
H2571       H  0.86702782  0.45474703  0.56469857     0.09400
C2572       C  0.88581371  0.51778677  0.58185781     0.03100
C2573       C  0.88374569  0.55209302  0.58187482    -0.05600
C2574       C  0.85046937  0.55250612  0.58624034    -0.24000
C2575       C  0.81898705  0.51749297  0.59109296     0.12400
C2576       C  0.82064892  0.48278012  0.59081167    -0.13100
N2577       N  0.92100358  0.51989033  0.57742775     0.64100
H2578       H  0.90857657  0.57877901  0.57836055     0.11900
N2579       N  0.78436997  0.51594583  0.59580016     0.60700
H2580       H  0.79523331  0.45580053  0.59379008     0.08100
O2581       O  0.90632106  0.41082149  0.55472063    -0.40800
O2582       O  0.84487868  0.38083565  0.54944544    -0.39900
O2583       O  0.79523468  0.40463574  0.60979248    -0.39900
O2584       O  0.85651956  0.43538660  0.61521012    -0.37600
O2585       O  0.75474374  0.50299153  0.58869176    -0.38500
O2586       O  0.77986003  0.51606566  0.60762793    -0.34700
O2587       O  0.92826071  0.52396466  0.56570859    -0.36100
O2588       O  0.94897906  0.53013088  0.58510633    -0.40400
C2589       C  0.82142760  0.98555305  0.57455471    -0.14100
C2590       C  0.85417516  0.98496894  0.56978463     0.16300
C2591       C  0.88425795  0.01911105  0.56401822     0.02600
C2592       C  0.88244537  0.05369913  0.56409763    -0.12600
C2593       C  0.85083633  0.05492044  0.56967186    -0.03700
C2594       C  0.81937788  0.01989677  0.57452262     0.01800
C2595       C  0.85513881  0.94792109  0.57069092     0.08700
N2596       N  0.91738619  0.01971727  0.55836674     0.65000
H2597       H  0.90666616  0.08009017  0.56017708     0.17900
N2598       N  0.78457991  0.01819194  0.57912976     0.75500
H2599       H  0.79707871  0.95898951  0.57833028     0.09400
C2600       C  0.85040342  0.92891433  0.58244178     0.03100
C2601       C  0.84723047  0.89205575  0.58287918    -0.05600
C2602       C  0.84906500  0.87334051  0.57182533    -0.24000
C2603       C  0.85422908  0.89254660  0.56004399     0.12400
C2604       C  0.85691090  0.92936064  0.55960103    -0.13100
N2605       N  0.84955074  0.94688721  0.59410349     0.64100
H2606       H  0.84406818  0.87833513  0.59203484     0.11900
N2607       N  0.85544985  0.87479398  0.54838462     0.60700
H2608       H  0.85932814  0.94302282  0.55048703     0.08100
O2609       O  0.77903905  0.01696929  0.59092834    -0.40800
O2610       O  0.75565944  0.00653432  0.57176207    -0.39900
O2611       O  0.91924216  0.01898526  0.54644265    -0.39900
O2612       O  0.94845374  0.03252757  0.56474603    -0.37600
O2613       O  0.82443863  0.85618117  0.54198935    -0.38500
O2614       O  0.88793060  0.88723341  0.54292565    -0.34700
O2615       O  0.81744512  0.93401887  0.59984738    -0.36100
O2616       O  0.88098365  0.96636704  0.60022172    -0.40400
C2617       C  0.65067887  0.23221447  0.59463407    -0.14100
C2618       C  0.61787453  0.20158697  0.58863348     0.16300
C2619       C  0.62215672  0.17232531  0.58237111     0.02600
C2620       C  0.65875102  0.17488429  0.58178444    -0.12600
C2621       C  0.69220648  0.20638586  0.58723725    -0.03700
C2622       C  0.68761777  0.23495995  0.59400631     0.01800
C2623       C  0.58135881  0.20372932  0.58729507     0.08700
N2624       N  0.58970684  0.13987969  0.57635045     0.65000
H2625       H  0.66098988  0.15210658  0.57676097     0.17900
N2626       N  0.72019713  0.26820170  0.59966166     0.75500
H2627       H  0.64807819  0.25531426  0.59928690     0.09400
C2628       C  0.55862005  0.20292165  0.59773076     0.03100
C2629       C  0.52504020  0.20593863  0.59576681    -0.05600
C2630       C  0.51311776  0.20961955  0.58353138    -0.24000
C2631       C  0.53664464  0.21155405  0.57313538     0.12400
C2632       C  0.57024587  0.20872540  0.57513001    -0.13100
N2633       N  0.56807633  0.19748623  0.61034872     0.64100
H2634       H  0.50756489  0.20426701  0.60390055     0.11900
N2635       N  0.52782733  0.21760669  0.56049762     0.60700
H2636       H  0.58812504  0.21084723  0.56705764     0.08100
O2637       O  0.72369368  0.26948865  0.61156236    -0.40800
O2638       O  0.73763474  0.29969367  0.59344688    -0.39900
O2639       O  0.58711668  0.13947792  0.56442797    -0.39900
O2640       O  0.57137918  0.10801576  0.58232164    -0.37600
O2641       O  0.54589832  0.25171462  0.55591816    -0.38500
O2642       O  0.51208647  0.18870964  0.55305079    -0.34700
O2643       O  0.58231893  0.22628648  0.61785243    -0.36100
O2644       O  0.55155947  0.16329144  0.61486763    -0.40400
C2645       C  0.08939152  0.24652986  0.56759546    -0.14100
C2646       C  0.08613209  0.20952877  0.56662925     0.16300
C2647       C  0.04850475  0.17614603  0.56570862     0.02600
C2648       C  0.01519155  0.18028943  0.56598607    -0.12600
C2649       C  0.01837396  0.21718780  0.56744545    -0.03700
C2650       C  0.05611772  0.25067193  0.56801522     0.01800
C2651       C  0.12189508  0.20656944  0.56860784     0.08700
N2652       N  0.04330968  0.13762392  0.56532719     0.65000
H2653       H  0.98653863  0.15420095  0.56569029     0.17900
N2654       N  0.06138095  0.28920348  0.56868780     0.75500
H2655       H  0.11808502  0.27240857  0.56836385     0.09400
C2656       C  0.14222397  0.20073923  0.55865045     0.03100
C2657       C  0.17676888  0.20002996  0.56121059    -0.05600
C2658       C  0.19236922  0.20574527  0.57354969    -0.24000
C2659       C  0.17219487  0.21246913  0.58344865     0.12400
C2660       C  0.13744343  0.21265143  0.58087531    -0.13100
N2661       N  0.12933918  0.19706807  0.54581716     0.64100
H2662       H  0.19182324  0.19560513  0.55337074     0.11900
N2663       N  0.18565786  0.21821201  0.59625555     0.60700
H2664       H  0.12243395  0.21779362  0.58857856     0.08100
O2665       O  0.06561124  0.30773912  0.55852170    -0.40800
O2666       O  0.07282574  0.30801622  0.57895704    -0.39900
O2667       O  0.03634222  0.11856021  0.57551837    -0.39900
O2668       O  0.03421458  0.11927385  0.55494680    -0.37600
O2669       O  0.16894718  0.19011263  0.60394150    -0.38500
O2670       O  0.20467863  0.25267999  0.60053614    -0.34700
O2671       O  0.14731460  0.22593338  0.53848126    -0.36100
O2672       O  0.10956106  0.16327269  0.54109682    -0.40400
C2673       C  0.99565400  0.32712276  0.51107053    -0.14100
C2674       C  0.99238667  0.29896332  0.50230091     0.16300
C2675       C  0.96633830  0.25892208  0.50491197     0.02600
C2676       C  0.94505948  0.24802960  0.51619285    -0.12600
C2677       C  0.94888118  0.27611396  0.52509669    -0.03700
C2678       C  0.97414914  0.31624429  0.52233741     0.01800
C2679       C  0.02042585  0.31160607  0.49158136     0.08700
N2680       N  0.96108027  0.22870613  0.49628833     0.65000
H2681       H  0.92541291  0.21716128  0.51799138     0.17900
N2682       N  0.98026444  0.34638680  0.53111394     0.75500
H2683       H  0.01653425  0.35778491  0.50948833     0.09400
C2684       C  0.02544566  0.34109483  0.48290783     0.03100
C2685       C  0.05388492  0.35300827  0.47340281    -0.05600
C2686       C  0.07798001  0.33637700  0.47231452    -0.24000
C2687       C  0.07384495  0.30798883  0.48137891     0.12400
C2688       C  0.04542851  0.29615623  0.49081761    -0.13100
N2689       N  0.00143871  0.35869032  0.48334802     0.64100
H2690       H  0.05631307  0.37474554  0.46662017     0.11900
N2691       N  0.09879332  0.29145460  0.48151065     0.60700
H2692       H  0.04357419  0.27523909  0.49783527     0.08100
O2693       O  0.00870062  0.35891274  0.53872230    -0.40800
O2694       O  0.96511742  0.36734054  0.52882888    -0.39900
O2695       O  0.97646234  0.20815207  0.49889168    -0.39900
O2696       O  0.93223913  0.21497103  0.48882283    -0.37600
O2697       O  0.12878678  0.30700811  0.48848877    -0.38500
O2698       O  0.08463568  0.25605225  0.47833373    -0.34700
O2699       O  0.01528293  0.39240690  0.48813282    -0.36100
O2700       O  0.97297254  0.34670126  0.47577626    -0.40400
loop_ 
_geom_bond_atom_site_label_1 
_geom_bond_atom_site_label_2 
_geom_bond_distance 
_geom_bond_site_symmetry_2 
_ccdc_geom_bond_type 
Zr1           O2   2.438       .  S
Zr1           O3   2.447       .  S
Zr1           O4   2.441       .  S
Zr1           O7   2.435       .  S
Zr1           O9   2.373       .  S
Zr1          O10   2.379       .  S
Zr1          O11   2.408       .  S
Zr1          O12   2.405       .  S
O2           H58   0.990       .  S
O2           H66   0.990       .  S
O3           C23   1.287       .  A
O4           C25   1.288       .  A
O5          Zr15   2.425       .  S
O5           C24   1.282       .  A
O6          Zr14   2.416       .  S
O6           C25   1.281       .  A
O7           C24   1.286       .  A
O8          Zr16   2.440       .  S
O8           C23   1.285       .  A
O9          Zr14   2.387       .  S
O9          Zr16   2.364       .  S
O10         Zr15   2.393       .  S
O10         Zr16   2.380       .  S
O10          H45   0.967       .  S
O11         Zr14   2.394       .  S
O11         Zr31   2.407       .  S
O11          H48   0.970       .  S
O12         Zr15   2.381       .  S
O12         Zr31   2.399       .  S
Zr13         O38   2.441       .  S
Zr13         O32   2.454       .  S
Zr13         O40   2.462       .  S
Zr13         O28   2.444       .  S
Zr13         O19   2.401       .  S
Zr13         O20   2.414       .  S
Zr13         O21   2.377       .  S
Zr13         O22   2.390       .  S
Zr14         O33   2.437       .  S
Zr14         O26   2.435       .  S
Zr14         O27   2.407       .  S
Zr14         O20   2.401       .  S
Zr14         O21   2.386       .  S
Zr15         O17   2.436       .  S
Zr15         O39   2.439       .  S
Zr15         O41   2.411       .  S
Zr15         O19   2.396       .  S
Zr15         O22   2.392       .  S
Zr16         O42   2.435       .  S
Zr16         O43   2.434       .  S
Zr16         O18   2.436       .  S
Zr16         O19   2.394       .  S
Zr16         O20   2.409       .  S
O17          H54   0.990       .  S
O18          H49   0.990   1_655  S
O18          H63   0.990       .  S
O20          H46   0.966       .  S
O21         Zr31   2.367       .  S
O22         Zr31   2.385       .  S
O22          H47   0.970       .  S
C23        C2649   1.489   1_655  S
C24        C2593   1.481       .  S
C25        C2677   1.482       .  S
O26          H62   0.990       .  S
O27          C29   1.279       .  A
O28          C29   1.288       .  A
C29        C2565   1.490       .  S
O30         Zr31   2.440       .  S
O30          H59   0.990       .  S
Zr31         O34   2.437       .  S
Zr31         O35   2.439       .  S
Zr31         O36   2.437       .  S
O32          C37   1.286       .  A
O33          H50   0.990       .  S
O33          H65   0.990       .  S
O34          H51   0.990       .  S
O35          H55   0.990       .  S
O35          H64   0.990       .  S
O36          C37   1.287       .  A
C37        C2621   1.499       .  S
O38          H57   0.990       .  S
O38          H61   0.990       .  S
O39          H53   0.990       .  S
O39          H60   0.990       .  S
O40          C44   1.288       .  A
O41          C44   1.280       .  A
O42          H52   0.990       .  S
O43          H56   0.990       .  S
C44        C2546   1.475       .  S
Zr67         O68   2.437       .  S
Zr67         O69   2.421       .  S
Zr67         O70   2.416       .  S
Zr67         O73   2.429       .  S
Zr67         O75   2.387       .  S
Zr67         O76   2.379       .  S
Zr67         O77   2.404       .  S
Zr67         O78   2.397       .  S
O68         H124   0.990       .  S
O68         H132   0.990       .  S
O69          C89   1.281       .  A
O70          C91   1.281       .  A
O71         Zr81   2.442       .  S
O71          C90   1.284       .  A
O72         Zr80   2.461       .  S
O72          C91   1.292       .  A
O73          C90   1.285       .  A
O74         Zr82   2.436       .  S
O74          C89   1.286       .  A
O75         Zr80   2.390       .  S
O75         Zr82   2.367       .  S
O76         Zr81   2.387       .  S
O76         Zr82   2.371       .  S
O76         H111   0.965       .  S
O77         Zr80   2.397       .  S
O77         Zr97   2.396       .  S
O77         H114   0.967       .  S
O78         Zr81   2.388       .  S
O78         Zr97   2.398       .  S
Zr79        O104   2.436       .  S
Zr79         O98   2.443       .  S
Zr79        O106   2.453       .  S
Zr79         O94   2.438       .  S
Zr79         O85   2.396       .  S
Zr79         O86   2.416       .  S
Zr79         O87   2.386       .  S
Zr79         O88   2.391       .  S
Zr80         O99   2.435       .  S
Zr80         O92   2.436       .  S
Zr80         O93   2.453       .  S
Zr80         O86   2.401       .  S
Zr80         O87   2.394       .  S
Zr81         O83   2.435       .  S
Zr81        O105   2.436       .  S
Zr81        O107   2.419       .  S
Zr81         O85   2.395       .  S
Zr81         O88   2.396       .  S
Zr82        O108   2.436       .  S
Zr82        O109   2.433       .  S
Zr82         O84   2.437       .  S
Zr82         O85   2.386       .  S
Zr82         O86   2.407       .  S
O83         H120   0.990       .  S
O84         H115   0.990       .  S
O84         H129   0.989       .  S
O86         H112   0.966       .  S
O87         Zr97   2.375       .  S
O88         Zr97   2.388       .  S
O88         H113   0.967       .  S
C89        C2518   1.487       .  S
C90        C2434   1.480       .  S
C91        C2686   1.490       .  S
O92         H128   0.990       .  S
O93          C95   1.291       .  A
O94          C95   1.283       .  A
C95        C2453   1.505       .  S
O96         Zr97   2.436       .  S
O96         H125   0.990       .  S
Zr97        O100   2.437       .  S
Zr97        O101   2.436       .  S
Zr97        O102   2.420       .  S
O98         C103   1.283       .  A
O99         H116   0.990       .  S
O99         H131   0.990       .  S
O100        H117   0.990       .  S
O101        H121   0.990       .  S
O101        H130   0.990       .  S
O102        C103   1.283       .  A
C103       C2490   1.496       .  S
O104        H123   0.990       .  S
O104        H127   0.990       .  S
O105        H119   0.990       .  S
O105        H126   0.990       .  S
O106        C110   1.285       .  A
O107        C110   1.283       .  A
O108        H118   0.990       .  S
O109        H122   0.990       .  S
C110       C2406   1.486       .  S
Zr133       O134   2.437       .  S
Zr133       O135   2.445       .  S
Zr133       O136   2.432       .  S
Zr133       O139   2.443       .  S
Zr133       O141   2.381       .  S
Zr133       O142   2.381       .  S
Zr133       O143   2.417       .  S
Zr133       O144   2.402       .  S
O134        H190   0.990       .  S
O134        H198   0.990       .  S
O135        C155   1.287   1_565  A
O136        C157   1.284       .  A
O137       Zr147   2.445       .  S
O137        C156   1.289       .  A
O138       Zr146   2.453       .  S
O138        C157   1.291       .  A
O139        C156   1.287       .  A
O140       Zr148   2.445   1_545  S
O140        C155   1.286       .  A
O141       Zr146   2.386       .  S
O141       Zr148   2.361       .  S
O142       Zr147   2.390       .  S
O142       Zr148   2.376       .  S
O142        H177   0.966       .  S
O143       Zr146   2.401       .  S
O143       Zr163   2.407       .  S
O143        H180   0.966       .  S
O144       Zr147   2.390       .  S
O144       Zr163   2.396       .  S
Zr145       O170   2.441       .  S
Zr145       O164   2.464       .  S
Zr145       O172   2.432       .  S
Zr145       O160   2.415       .  S
Zr145       O151   2.402       .  S
Zr145       O152   2.412       .  S
Zr145       O153   2.383       .  S
Zr145       O154   2.381       .  S
Zr146       O165   2.436       .  S
Zr146       O158   2.435       .  S
Zr146       O159   2.461       .  S
Zr146       O152   2.389       .  S
Zr146       O153   2.390       .  S
Zr147       O149   2.435       .  S
Zr147       O171   2.436       .  S
Zr147       O173   2.440       .  S
Zr147       O151   2.384       .  S
Zr147       O154   2.387       .  S
Zr148       O174   2.436       .  S
Zr148       O175   2.435       .  S
Zr148       O150   2.438   1_565  S
Zr148       O151   2.397       .  S
Zr148       O152   2.404       .  S
O149        H186   0.990       .  S
O150        H181   0.990       .  S
O150        H195   0.990       .  S
O152        H178   0.968       .  S
O153       Zr163   2.376       .  S
O154       Zr163   2.382       .  S
O154        H179   0.966       .  S
C155       C2425   1.493       .  S
C156       C2322   1.495       .  S
C157       C2369   1.497       .  S
O158        H194   0.990       .  S
O159        C161   1.292       .  A
O160        C161   1.280       .  A
C161       C2341   1.491       .  S
O162       Zr163   2.438       .  S
O162        H191   0.990       .  S
Zr163       O166   2.439       .  S
Zr163       O167   2.438       .  S
Zr163       O168   2.428       .  S
O164        C169   1.291       .  A
O165        H182   0.990       .  S
O165        H197   0.990       .  S
O166        H183   0.990       .  S
O167        H187   0.990       .  S
O167        H196   0.990       .  S
O168        C169   1.283       .  A
C169       C2462   1.486       .  S
O170        H189   0.988       .  S
O170        H193   0.989       .  S
O171        H185   0.990       .  S
O171        H192   0.990       .  S
O172        C176   1.284       .  A
O173        C176   1.288       .  A
O174        H184   0.990       .  S
O175        H188   0.990       .  S
C176       C2285   1.488       .  S
Zr199       O200   2.438       .  S
Zr199       O201   2.416       .  S
Zr199       O202   2.433       .  S
Zr199       O205   2.437       .  S
Zr199       O207   2.378       .  S
Zr199       O208   2.378       .  S
Zr199       O209   2.405       .  S
Zr199       O210   2.397       .  S
O200        H256   0.990       .  S
O200        H264   0.990       .  S
O201        C221   1.282       .  A
O202        C223   1.284       .  A
O203       Zr213   2.447       .  S
O203        C222   1.286       .  A
O204       Zr212   2.450       .  S
O204        C223   1.289       .  A
O205        C222   1.287       .  A
O206       Zr214   2.418       .  S
O206        C221   1.281       .  A
O207       Zr212   2.383       .  S
O207       Zr214   2.369       .  S
O208       Zr213   2.383       .  S
O208       Zr214   2.381       .  S
O208        H243   0.965       .  S
O209       Zr212   2.397       .  S
O209       Zr229   2.405       .  S
O209        H246   0.971       .  S
O210       Zr213   2.385       .  S
O210       Zr229   2.396       .  S
Zr211       O236   2.440       .  S
Zr211       O230   2.432       .  S
Zr211       O238   2.460       .  S
Zr211       O226   2.457       .  S
Zr211       O217   2.397       .  S
Zr211       O218   2.410       .  S
Zr211       O219   2.381       .  S
Zr211       O220   2.391       .  S
Zr212       O231   2.436       .  S
Zr212       O224   2.435       .  S
Zr212       O225   2.434       .  S
Zr212       O218   2.407       .  S
Zr212       O219   2.394       .  S
Zr213       O215   2.435       .  S
Zr213       O237   2.439       .  S
Zr213       O239   2.412       .  S
Zr213       O217   2.398       .  S
Zr213       O220   2.404       .  S
Zr214       O240   2.434       .  S
Zr214       O241   2.436       .  S
Zr214       O216   2.437       .  S
Zr214       O217   2.384       .  S
Zr214       O218   2.396       .  S
O215        H252   0.990       .  S
O216        H247   0.990       .  S
O216        H261   0.990       .  S
O218        H244   0.964       .  S
O219       Zr229   2.369       .  S
O220       Zr229   2.382       .  S
O220        H245   0.968       .  S
C221       C2229   1.466       .  S
C222       C2658   1.498       .  S
C223       C2378   1.486       .  S
O224        H260   0.990       .  S
O225        C227   1.284       .  A
O226        C227   1.289       .  A
C227       C2630   1.493       .  S
O228       Zr229   2.436       .  S
O228        H257   0.990       .  S
Zr229       O232   2.435       .  S
Zr229       O233   2.437       .  S
Zr229       O234   2.431       .  S
O230        C235   1.282       .  A
O231        H248   0.990       .  S
O231        H263   0.990       .  S
O232        H249   0.990       .  S
O233        H253   0.990       .  S
O233        H262   0.990       .  S
O234        C235   1.285       .  A
C235       C2257   1.489       .  S
O236        H255   0.990       .  S
O236        H259   0.990       .  S
O237        H251   0.990       .  S
O237        H258   0.990       .  S
O238        C242   1.292       .  A
O239        C242   1.280       .  A
O240        H250   0.990       .  S
O241        H254   0.990       .  S
C242       C2210   1.492       .  S
Zr265       O266   2.436       .  S
Zr265       O267   2.423       .  S
Zr265       O268   2.423       .  S
Zr265       O271   2.431       .  S
Zr265       O273   2.386       .  S
Zr265       O274   2.376       .  S
Zr265       O275   2.403       .  S
Zr265       O276   2.386       .  S
O266        H322   0.989       .  S
O266        H330   0.990       .  S
O267        C287   1.281       .  A
O268        C289   1.282       .  A
O269       Zr279   2.415       .  S
O269        C288   1.281       .  A
O270       Zr278   2.449       .  S
O270        C289   1.290       .  A
O271        C288   1.286       .  A
O272       Zr280   2.437       .  S
O272        C287   1.286       .  A
O273       Zr278   2.387       .  S
O273       Zr280   2.366       .  S
O274       Zr279   2.389       .  S
O274       Zr280   2.377       .  S
O274        H309   0.966       .  S
O275       Zr278   2.399       .  S
O275       Zr295   2.396       .  S
O275        H312   0.970       .  S
O276       Zr279   2.384       .  S
O276       Zr295   2.384       .  S
Zr277       O302   2.442       .  S
Zr277       O296   2.449       .  S
Zr277       O304   2.453       .  S
Zr277       O292   2.449       .  S
Zr277       O283   2.398       .  S
Zr277       O284   2.418       .  S
Zr277       O285   2.382       .  S
Zr277       O286   2.381       .  S
Zr278       O297   2.435       .  S
Zr278       O290   2.437       .  S
Zr278       O291   2.435       .  S
Zr278       O284   2.401       .  S
Zr278       O285   2.397       .  S
Zr279       O281   2.434       .  S
Zr279       O303   2.439       .  S
Zr279       O305   2.406       .  S
Zr279       O283   2.391       .  S
Zr279       O286   2.388       .  S
Zr280       O306   2.435       .  S
Zr280       O307   2.437       .  S
Zr280       O282   2.440       .  S
Zr280       O283   2.393       .  S
Zr280       O284   2.410       .  S
O281        H318   0.990   1_565  S
O282        H313   0.990       .  S
O282        H327   0.990       .  S
O284        H310   0.965       .  S
O285       Zr295   2.378       .  S
O286       Zr295   2.386       .  S
O286        H311   0.962       .  S
C287       C2313   1.477       .  S
C288       C2509   1.474   1_565  S
C289       C2182   1.490       .  S
O290        H326   0.990       .  S
O291        C293   1.286       .  A
O292        C293   1.285       .  A
C293       C2481   1.487       .  S
O294       Zr295   2.434       .  S
O294        H323   0.990       .  S
Zr295       O298   2.436       .  S
Zr295       O299   2.437       .  S
Zr295       O300   2.408       .  S
O296        C301   1.287       .  A
O297        H314   0.990       .  S
O297        H329   0.990       .  S
O298        H315   0.990       .  S
O299        H319   0.990       .  S
O299        H328   0.990       .  S
O300        C301   1.279       .  A
C301       C2350   1.476       .  S
O302        H321   0.990       .  S
O302        H325   0.990       .  S
O303        H317   0.990       .  S
O303        H324   0.990       .  S
O304        C308   1.290       .  A
O305        C308   1.279       .  A
O306        H316   0.990       .  S
O307        H320   0.990       .  S
C308       C2145   1.485       .  S
Zr331       O332   2.438       .  S
Zr331       O333   2.419       .  S
Zr331       O334   2.434       .  S
Zr331       O337   2.449       .  S
Zr331       O339   2.379       .  S
Zr331       O340   2.384       .  S
Zr331       O341   2.404       .  S
Zr331       O342   2.403       .  S
O332        H388   0.990       .  S
O332        H396   0.990       .  S
O333        C353   1.280       .  A
O334        C355   1.287       .  A
O335       Zr345   2.431       .  S
O335        C354   1.287       .  A
O336       Zr344   2.422       .  S
O336        C355   1.281       .  A
O337        C354   1.286       .  A
O338       Zr346   2.439       .  S
O338        C353   1.287       .  A
O339       Zr344   2.387       .  S
O339       Zr346   2.367       .  S
O340       Zr345   2.388       .  S
O340       Zr346   2.374       .  S
O340        H375   0.965       .  S
O341       Zr344   2.400       .  S
O341       Zr361   2.400       .  S
O341        H378   0.968       .  S
O342       Zr345   2.391       .  S
O342       Zr361   2.392       .  S
Zr343       O368   2.437       .  S
Zr343       O362   2.434       .  S
Zr343       O370   2.458       .  S
Zr343       O358   2.444       .  S
Zr343       O349   2.401       .  S
Zr343       O350   2.411       .  S
Zr343       O351   2.379       .  S
Zr343       O352   2.386       .  S
Zr344       O363   2.437       .  S
Zr344       O356   2.434       .  S
Zr344       O357   2.414       .  S
Zr344       O350   2.400       .  S
Zr344       O351   2.389       .  S
Zr345       O347   2.435       .  S
Zr345       O369   2.439       .  S
Zr345       O371   2.426       .  S
Zr345       O349   2.390       .  S
Zr345       O352   2.388       .  S
Zr346       O372   2.436       .  S
Zr346       O373   2.436       .  S
Zr346       O348   2.436       .  S
Zr346       O349   2.394       .  S
Zr346       O350   2.408       .  S
O347        H384   0.990       .  S
O348        H379   0.990       .  S
O348        H393   0.990       .  S
O350        H376   0.964       .  S
O351       Zr361   2.371       .  S
O352       Zr361   2.381       .  S
O352        H377   0.963       .  S
C353       C2602   1.483       .  S
C354       C2238   1.500   1_655  S
C355       C2173   1.482       .  S
O356        H392   0.990       .  S
O357        C359   1.280       .  A
O358        C359   1.287       .  A
C359       C2266   1.488       .  S
O360       Zr361   2.436       .  S
O360        H389   0.990       .  S
Zr361       O364   2.434       .  S
Zr361       O365   2.440       .  S
Zr361       O366   2.423       .  S
O362        C367   1.283       .  A
O363        H380   0.990       .  S
O363        H395   0.990       .  S
O364        H381   0.990       .  S
O365        H385   0.990       .  S
O365        H394   0.989       .  S
O366        C367   1.284       .  A
C367       C2574   1.482       .  S
O368        H387   0.990       .  S
O368        H391   0.991       .  S
O369        H383   0.990       .  S
O369        H390   0.990       .  S
O370        C374   1.288       .  A
O371        C374   1.286       .  A
O372        H382   0.990       .  S
O373        H386   0.990       .  S
C374       C2117   1.502       .  S
Zr397       O398   2.439       .  S
Zr397       O399   2.434       .  S
Zr397       O400   2.433       .  S
Zr397       O403   2.429       .  S
Zr397       O405   2.375       .  S
Zr397       O406   2.379       .  S
Zr397       O407   2.404       .  S
Zr397       O408   2.402       .  S
O398        H454   0.990       .  S
O398        H462   0.990       .  S
O399        C419   1.286       .  A
O400        C421   1.286       .  A
O401       Zr411   2.438       .  S
O401        C420   1.287       .  A
O402       Zr410   2.435   1_455  S
O402        C421   1.285       .  A
O403        C420   1.284       .  A
O404       Zr412   2.434       .  S
O404        C419   1.283       .  A
O405       Zr410   2.389   1_455  S
O405       Zr412   2.370       .  S
O406       Zr411   2.382       .  S
O406       Zr412   2.375       .  S
O406        H441   0.966       .  S
O407       Zr410   2.399   1_455  S
O407       Zr427   2.402   1_455  S
O407        H444   0.972       .  S
O408       Zr411   2.390       .  S
O408       Zr427   2.393   1_455  S
Zr409       O434   2.437       .  S
Zr409       O428   2.456       .  S
Zr409       O436   2.454       .  S
Zr409       O424   2.427       .  S
Zr409       O415   2.403   1_655  S
Zr409       O416   2.414       .  S
Zr409       O417   2.379       .  S
Zr409       O418   2.383   1_655  S
Zr410       O429   2.437       .  S
Zr410       O422   2.434       .  S
Zr410       O423   2.429       .  S
Zr410       O416   2.395       .  S
Zr410       O417   2.394       .  S
Zr411       O413   2.435       .  S
Zr411       O435   2.438       .  S
Zr411       O437   2.427       .  S
Zr411       O415   2.392       .  S
Zr411       O418   2.392       .  S
Zr412       O438   2.435       .  S
Zr412       O439   2.436       .  S
Zr412       O414   2.438       .  S
Zr412       O415   2.396       .  S
Zr412       O416   2.404   1_455  S
O413        H450   0.990       .  S
O414        H445   0.990       .  S
O414        H459   0.990       .  S
O416        H442   0.966       .  S
O417       Zr427   2.376       .  S
O418       Zr427   2.386   1_455  S
O418        H443   0.967   1_455  S
C419       C1986   1.495       .  S
C420       C2033   1.484       .  S
C421       C2098   1.479       .  S
O422        H458   0.990       .  S
O423        C425   1.283       .  A
O424        C425   1.282       .  A
C425       C2070   1.467       .  S
O426       Zr427   2.435   1_455  S
O426        H455   0.990       .  S
Zr427       O430   2.436       .  S
Zr427       O431   2.438   1_655  S
Zr427       O432   2.418       .  S
O428        C433   1.290       .  A
O429        H446   0.990       .  S
O429        H461   0.990       .  S
O430        H447   0.990       .  S
O431        H451   0.990   1_455  S
O431        H460   0.990       .  S
O432        C433   1.280       .  A
C433       C2014   1.497       .  S
O434        H453   0.990       .  S
O434        H457   0.990       .  S
O435        H449   0.990       .  S
O435        H456   0.990       .  S
O436        C440   1.286   1_655  A
O437        C440   1.286       .  A
O438        H448   0.990       .  S
O439        H452   0.990       .  S
C440       C1949   1.497       .  S
Zr463       O464   2.436       .  S
Zr463       O465   2.427       .  S
Zr463       O466   2.419       .  S
Zr463       O469   2.407       .  S
Zr463       O471   2.379       .  S
Zr463       O472   2.383       .  S
Zr463       O473   2.399       .  S
Zr463       O474   2.404       .  S
O464        H520   0.989       .  S
O464        H528   0.990       .  S
O465        C485   1.285       .  A
O466        C487   1.281       .  A
O467       Zr477   2.457       .  S
O467        C486   1.289       .  A
O468       Zr476   2.447       .  S
O468        C487   1.290       .  A
O469        C486   1.279       .  A
O470       Zr478   2.432       .  S
O470        C485   1.284       .  A
O471       Zr476   2.383       .  S
O471       Zr478   2.374       .  S
O472       Zr477   2.390       .  S
O472       Zr478   2.376       .  S
O472        H507   0.965       .  S
O473       Zr476   2.395       .  S
O473       Zr493   2.393       .  S
O473        H510   0.969       .  S
O474       Zr477   2.387       .  S
O474       Zr493   2.405       .  S
Zr475       O500   2.441       .  S
Zr475       O494   2.444       .  S
Zr475       O502   2.461       .  S
Zr475       O490   2.453       .  S
Zr475       O481   2.396       .  S
Zr475       O482   2.415       .  S
Zr475       O483   2.379       .  S
Zr475       O484   2.390       .  S
Zr476       O495   2.437       .  S
Zr476       O488   2.436       .  S
Zr476       O489   2.431       .  S
Zr476       O482   2.406       .  S
Zr476       O483   2.398       .  S
Zr477       O479   2.434       .  S
Zr477       O501   2.437       .  S
Zr477       O503   2.437       .  S
Zr477       O481   2.389       .  S
Zr477       O484   2.404       .  S
Zr478       O504   2.435       .  S
Zr478       O505   2.438       .  S
Zr478       O480   2.437       .  S
Zr478       O481   2.385       .  S
Zr478       O482   2.404       .  S
O479        H516   0.990       .  S
O480        H511   0.990       .  S
O480        H525   0.990       .  S
O482        H508   0.966       .  S
O483       Zr493   2.376       .  S
O484       Zr493   2.392       .  S
O484        H509   0.971       .  S
C485       C1865   1.485       .  S
C486       C1921   1.485       .  S
C487       C2089   1.489       .  S
O488        H524   0.990       .  S
O489        C491   1.283       .  A
O490        C491   1.288       .  A
C491       C1893   1.491       .  S
O492       Zr493   2.434       .  S
O492        H521   0.990       .  S
Zr493       O496   2.436       .  S
Zr493       O497   2.439       .  S
Zr493       O498   2.416       .  S
O494        C499   1.286       .  A
O495        H512   0.990       .  S
O495        H527   0.990       .  S
O496        H513   0.990       .  S
O497        H517   0.990       .  S
O497        H526   0.989       .  S
O498        C499   1.278       .  A
C499       C1846   1.480       .  S
O500        H519   0.990       .  S
O500        H523   0.990       .  S
O501        H515   0.990       .  S
O501        H522   0.990       .  S
O502        C506   1.291       .  A
O503        C506   1.284       .  A
O504        H514   0.990       .  S
O505        H518   0.990       .  S
C506       C2397   1.494       .  S
Zr529       O530   2.437       .  S
Zr529       O531   2.431       .  S
Zr529       O532   2.436       .  S
Zr529       O535   2.424       .  S
Zr529       O537   2.385       .  S
Zr529       O538   2.378       .  S
Zr529       O539   2.403       .  S
Zr529       O540   2.400       .  S
O530        H586   0.990       .  S
O530        H594   0.990       .  S
O531        C551   1.283       .  A
O532        C553   1.285       .  A
O533       Zr543   2.441       .  S
O533        C552   1.285       .  A
O534       Zr542   2.425       .  S
O534        C553   1.285       .  A
O535        C552   1.285       .  A
O536       Zr544   2.429       .  S
O536        C551   1.284       .  A
O537       Zr542   2.391       .  S
O537       Zr544   2.373       .  S
O538       Zr543   2.380       .  S
O538       Zr544   2.368       .  S
O538        H573   0.967       .  S
O539       Zr542   2.393       .  S
O539       Zr559   2.394       .  S
O539        H576   0.969       .  S
O540       Zr543   2.385       .  S
O540       Zr559   2.396       .  S
Zr541       O566   2.437       .  S
Zr541       O560   2.439       .  S
Zr541       O568   2.449       .  S
Zr541       O556   2.441       .  S
Zr541       O547   2.404       .  S
Zr541       O548   2.408       .  S
Zr541       O549   2.380       .  S
Zr541       O550   2.390       .  S
Zr542       O561   2.437       .  S
Zr542       O554   2.437       .  S
Zr542       O555   2.428       .  S
Zr542       O548   2.392       .  S
Zr542       O549   2.382       .  S
Zr543       O545   2.434       .  S
Zr543       O567   2.438       .  S
Zr543       O569   2.409       .  S
Zr543       O547   2.396       .  S
Zr543       O550   2.391       .  S
Zr544       O570   2.435       .  S
Zr544       O571   2.436       .  S
Zr544       O546   2.437       .  S
Zr544       O547   2.394       .  S
Zr544       O548   2.399       .  S
O545        H582   0.990       .  S
O546        H577   0.990       .  S
O546        H591   0.990       .  S
O548        H574   0.964       .  S
O549       Zr559   2.373       .  S
O550       Zr559   2.384       .  S
O550        H575   0.965       .  S
C551       C1930   1.476       .  S
C552       C1781   1.488       .  S
C553       C1809   1.481       .  S
O554        H590   0.990       .  S
O555        C557   1.285       .  A
O556        C557   1.285       .  A
C557       C1753   1.484       .  S
O558       Zr559   2.436       .  S
O558        H587   0.990       .  S
Zr559       O562   2.435       .  S
Zr559       O563   2.437       .  S
Zr559       O564   2.423       .  S
O560        C565   1.286       .  A
O561        H578   0.990       .  S
O561        H593   0.990       .  S
O562        H579   0.990       .  S
O563        H583   0.990   1_565  S
O563        H592   0.989       .  S
O564        C565   1.282       .  A
C565       C1902   1.485   1_565  S
O566        H585   0.990       .  S
O566        H589   0.990       .  S
O567        H581   0.990       .  S
O567        H588   0.990       .  S
O568        C572   1.285       .  A
O569        C572   1.283       .  A
O570        H580   0.990       .  S
O571        H584   0.990       .  S
C572       C2154   1.491       .  S
Zr595       O596   2.438       .  S
Zr595       O597   2.412       .  S
Zr595       O598   2.415       .  S
Zr595       O601   2.431       .  S
Zr595       O603   2.378       .  S
Zr595       O604   2.379       .  S
Zr595       O605   2.401       .  S
Zr595       O606   2.396       .  S
O596        H652   0.990       .  S
O596        H660   0.990       .  S
O597        C617   1.280       .  A
O598        C619   1.284       .  A
O599       Zr609   2.439       .  S
O599        C618   1.288       .  A
O600       Zr608   2.440       .  S
O600        C619   1.285       .  A
O601        C618   1.284       .  A
O602       Zr610   2.447       .  S
O602        C617   1.288       .  A
O603       Zr608   2.386       .  S
O603       Zr610   2.363       .  S
O604       Zr609   2.382       .  S
O604       Zr610   2.375       .  S
O604        H639   0.968       .  S
O605       Zr608   2.399       .  S
O605       Zr625   2.399       .  S
O605        H642   0.965       .  S
O606       Zr609   2.385       .  S
O606       Zr625   2.391       .  S
Zr607       O632   2.440       .  S
Zr607       O626   2.447       .  S
Zr607       O634   2.454       .  S
Zr607       O622   2.450       .  S
Zr607       O613   2.408       .  S
Zr607       O614   2.414       .  S
Zr607       O615   2.386       .  S
Zr607       O616   2.387       .  S
Zr608       O627   2.436       .  S
Zr608       O620   2.434       .  S
Zr608       O621   2.434       .  S
Zr608       O614   2.396       .  S
Zr608       O615   2.393       .  S
Zr609       O611   2.434       .  S
Zr609       O633   2.440       .  S
Zr609       O635   2.418       .  S
Zr609       O613   2.400       .  S
Zr609       O616   2.397       .  S
Zr610       O636   2.433       .  S
Zr610       O637   2.436       .  S
Zr610       O612   2.437       .  S
Zr610       O613   2.402       .  S
Zr610       O614   2.398       .  S
O611        H648   0.990       .  S
O612        H643   0.990       .  S
O612        H657   0.990       .  S
O614        H640   0.963       .  S
O615       Zr625   2.377       .  S
O616       Zr625   2.383       .  S
O616        H641   0.968       .  S
C617       C1697   1.482       .  S
C618       C1977   1.482       .  S
C619       C1818   1.482       .  S
O620        H656   0.990       .  S
O621        C623   1.287       .  A
O622        C623   1.286       .  A
C623       C2005   1.488       .  S
O624       Zr625   2.440       .  S
O624        H653   0.990       .  S
Zr625       O628   2.438       .  S
Zr625       O629   2.439       .  S
Zr625       O630   2.411       .  S
O626        C631   1.284       .  A
O627        H644   0.990       .  S
O627        H659   0.990       .  S
O628        H645   0.990       .  S
O629        H649   0.990       .  S
O629        H658   0.990       .  S
O630        C631   1.282       .  A
C631       C1734   1.486       .  S
O632        H651   0.990       .  S
O632        H655   0.990       .  S
O633        H647   0.990       .  S
O633        H654   0.990       .  S
O634        C638   1.288       .  A
O635        C638   1.280       .  A
O636        H646   0.990       .  S
O637        H650   0.991       .  S
C638       C1678   1.482       .  S
Zr661       O662   2.439       .  S
Zr661       O663   2.429       .  S
Zr661       O664   2.440       .  S
Zr661       O667   2.450       .  S
Zr661       O669   2.381   1_565  S
Zr661       O670   2.378       .  S
Zr661       O671   2.406   1_565  S
Zr661       O672   2.395   1_565  S
O662        H718   0.990       .  S
O662        H726   0.990       .  S
O663        C683   1.284       .  A
O664        C685   1.287   1_565  A
O665       Zr675   2.406       .  S
O665        C684   1.279       .  A
O666       Zr674   2.428       .  S
O666        C685   1.283       .  A
O667        C684   1.290       .  A
O668       Zr676   2.435       .  S
O668        C683   1.284       .  A
O669       Zr674   2.391       .  S
O669       Zr676   2.365   1_545  S
O670       Zr675   2.391       .  S
O670       Zr676   2.377       .  S
O670        H705   0.970       .  S
O671       Zr674   2.404       .  S
O671       Zr691   2.403       .  S
O671        H708   0.964       .  S
O672       Zr675   2.391   1_545  S
O672       Zr691   2.391       .  S
Zr673       O698   2.441       .  S
Zr673       O692   2.457       .  S
Zr673       O700   2.447       .  S
Zr673       O688   2.436       .  S
Zr673       O679   2.396       .  S
Zr673       O680   2.421       .  S
Zr673       O681   2.378       .  S
Zr673       O682   2.379       .  S
Zr674       O693   2.437       .  S
Zr674       O686   2.436       .  S
Zr674       O687   2.431       .  S
Zr674       O680   2.397       .  S
Zr674       O681   2.391       .  S
Zr675       O677   2.433   1_565  S
Zr675       O699   2.440       .  S
Zr675       O701   2.419   1_565  S
Zr675       O679   2.383   1_565  S
Zr675       O682   2.387   1_565  S
Zr676       O702   2.434       .  S
Zr676       O703   2.434   1_565  S
Zr676       O678   2.438       .  S
Zr676       O679   2.391   1_565  S
Zr676       O680   2.414   1_565  S
O677        H714   0.990   1_545  S
O678        H709   0.990       .  S
O678        H723   0.990       .  S
O680        H706   0.973       .  S
O681       Zr691   2.376       .  S
O682       Zr691   2.389       .  S
O682        H707   0.975       .  S
C683       C2042   1.487       .  S
C684       C1706   1.483       .  S
C685       C1650   1.480   1_545  S
O686        H722   0.990       .  S
O687        C689   1.285       .  A
O688        C689   1.282       .  A
C689       C1725   1.484       .  S
O690       Zr691   2.435       .  S
O690        H719   0.990       .  S
Zr691       O694   2.436       .  S
Zr691       O695   2.437       .  S
Zr691       O696   2.421       .  S
O692        C697   1.290       .  A
O693        H710   0.990       .  S
O693        H725   0.990       .  S
O694        H711   0.990       .  S
O695        H715   0.990       .  S
O695        H724   0.990       .  S
O696        C697   1.281       .  A
C697       C2061   1.498       .  S
O698        H717   0.991       .  S
O698        H721   0.990       .  S
O699        H713   0.990       .  S
O699        H720   0.990       .  S
O700        C704   1.289       .  A
O701        C704   1.281       .  A
O702        H712   0.990       .  S
O703        H716   0.990       .  S
C704       C1613   1.486       .  S
Zr727       O728   2.438       .  S
Zr727       O729   2.433       .  S
Zr727       O730   2.415       .  S
Zr727       O733   2.417       .  S
Zr727       O735   2.374       .  S
Zr727       O736   2.376       .  S
Zr727       O737   2.406       .  S
Zr727       O738   2.403       .  S
O728        H784   0.990       .  S
O728        H792   0.990       .  S
O729        C749   1.285       .  A
O730        C751   1.280       .  A
O731       Zr741   2.424       .  S
O731        C750   1.282       .  A
O732       Zr740   2.443       .  S
O732        C751   1.289       .  A
O733        C750   1.282       .  A
O734       Zr742   2.439       .  S
O734        C749   1.284       .  A
O735       Zr740   2.379       .  S
O735       Zr742   2.365       .  S
O736       Zr741   2.391       .  S
O736       Zr742   2.379       .  S
O736        H771   0.968       .  S
O737       Zr740   2.395       .  S
O737       Zr757   2.412       .  S
O737        H774   0.965       .  S
O738       Zr741   2.384       .  S
O738       Zr757   2.399       .  S
Zr739       O764   2.439       .  S
Zr739       O758   2.455       .  S
Zr739       O766   2.474       .  S
Zr739       O754   2.465       .  S
Zr739       O745   2.397       .  S
Zr739       O746   2.417       .  S
Zr739       O747   2.381       .  S
Zr739       O748   2.387       .  S
Zr740       O759   2.434       .  S
Zr740       O752   2.434       .  S
Zr740       O753   2.426       .  S
Zr740       O746   2.402       .  S
Zr740       O747   2.396       .  S
Zr741       O743   2.435       .  S
Zr741       O765   2.437       .  S
Zr741       O767   2.412       .  S
Zr741       O745   2.389       .  S
Zr741       O748   2.400       .  S
Zr742       O768   2.436       .  S
Zr742       O769   2.435       .  S
Zr742       O744   2.435       .  S
Zr742       O745   2.386       .  S
Zr742       O746   2.410       .  S
O743        H780   0.990       .  S
O744        H775   0.990       .  S
O744        H789   0.990       .  S
O746        H772   0.967       .  S
O747       Zr757   2.377       .  S
O748       Zr757   2.387       .  S
O748        H773   0.967       .  S
C749       C1790   1.491       .  S
C750       C1874   1.475       .  S
C751       C1641   1.491       .  S
O752        H788   0.990       .  S
O753        C755   1.283       .  A
O754        C755   1.289       .  A
C755       C1837   1.489   1_565  S
O756       Zr757   2.437       .  S
O756        H785   0.990       .  S
Zr757       O760   2.436       .  S
Zr757       O761   2.440       .  S
Zr757       O762   2.433       .  S
O758        C763   1.287       .  A
O759        H776   0.990       .  S
O759        H791   0.990       .  S
O760        H777   0.990       .  S
O761        H781   0.990       .  S
O761        H790   0.990       .  S
O762        C763   1.283       .  A
C763       C1762   1.492       .  S
O764        H783   0.990       .  S
O764        H787   0.990       .  S
O765        H779   0.990       .  S
O765        H786   0.990       .  S
O766        C770   1.295       .  A
O767        C770   1.280       .  A
O768        H778   0.990       .  S
O769        H782   0.990       .  S
C770       C2294   1.497       .  S
Zr793       O794   2.435       .  S
Zr793       O795   2.426       .  S
Zr793       O796   2.432       .  S
Zr793       O799   2.445       .  S
Zr793       O801   2.385       .  S
Zr793       O802   2.383       .  S
Zr793       O803   2.404       .  S
Zr793       O804   2.390       .  S
O794        H850   0.990       .  S
O794        H858   0.990       .  S
O795        C815   1.282       .  A
O796        C817   1.283       .  A
O797       Zr807   2.404       .  S
O797        C816   1.278       .  A
O798       Zr806   2.443       .  S
O798        C817   1.288       .  A
O799        C816   1.288       .  A
O800       Zr808   2.440       .  S
O800        C815   1.288       .  A
O801       Zr806   2.389       .  S
O801       Zr808   2.367       .  S
O802       Zr807   2.395       .  S
O802       Zr808   2.380       .  S
O802        H837   0.968       .  S
O803       Zr806   2.398       .  S
O803       Zr823   2.392       .  S
O803        H840   0.963       .  S
O804       Zr807   2.386       .  S
O804       Zr823   2.388       .  S
Zr805       O830   2.441       .  S
Zr805       O824   2.449       .  S
Zr805       O832   2.472       .  S
Zr805       O820   2.454       .  S
Zr805       O811   2.397       .  S
Zr805       O812   2.420       .  S
Zr805       O813   2.381       .  S
Zr805       O814   2.380       .  S
Zr806       O825   2.435       .  S
Zr806       O818   2.436       .  S
Zr806       O819   2.437       .  S
Zr806       O812   2.406       .  S
Zr806       O813   2.391       .  S
Zr807       O809   2.435       .  S
Zr807       O831   2.439       .  S
Zr807       O833   2.413       .  S
Zr807       O811   2.388       .  S
Zr807       O814   2.390       .  S
Zr808       O834   2.435       .  S
Zr808       O835   2.437       .  S
Zr808       O810   2.439       .  S
Zr808       O811   2.395       .  S
Zr808       O812   2.408       .  S
O809        H846   0.990       .  S
O810        H841   0.990       .  S
O810        H855   0.990       .  S
O812        H838   0.966       .  S
O813       Zr823   2.369       .  S
O814       Zr823   2.390       .  S
O814        H839   0.980       .  S
C815       C1510   1.490       .  S
C816       C1557   1.483       .  S
C817       C1594   1.483       .  S
O818        H854   0.990       .  S
O819        C821   1.284       .  A
O820        C821   1.287       .  A
C821       C1529   1.483       .  S
O822       Zr823   2.435       .  S
O822        H851   0.990       .  S
Zr823       O826   2.434       .  S
Zr823       O827   2.436       .  S
Zr823       O828   2.410       .  S
O824        C829   1.287       .  A
O825        H842   0.990       .  S
O825        H857   0.990       .  S
O826        H843   0.990       .  S
O827        H847   0.990       .  S
O827        H856   0.990       .  S
O828        C829   1.280       .  A
C829       C1473   1.481   1_655  S
O830        H849   0.990       .  S
O830        H853   0.990       .  S
O831        H845   0.990       .  S
O831        H852   0.990       .  S
O832        C836   1.293       .  A
O833        C836   1.279       .  A
O834        H844   0.990       .  S
O835        H848   0.990       .  S
C836       C2126   1.496       .  S
Zr859       O860   2.437       .  S
Zr859       O861   2.431       .  S
Zr859       O862   2.437       .  S
Zr859       O865   2.451       .  S
Zr859       O867   2.377       .  S
Zr859       O868   2.381       .  S
Zr859       O869   2.408       .  S
Zr859       O870   2.399       .  S
O860        H916   0.990       .  S
O860        H924   0.990       .  S
O861        C881   1.283       .  A
O862        C883   1.288       .  A
O863       Zr873   2.425       .  S
O863        C882   1.283       .  A
O864       Zr872   2.442       .  S
O864        C883   1.286       .  A
O865        C882   1.290       .  A
O866       Zr874   2.443       .  S
O866        C881   1.288       .  A
O867       Zr872   2.387       .  S
O867       Zr874   2.364       .  S
O868       Zr873   2.388       .  S
O868       Zr874   2.377       .  S
O868        H903   0.968       .  S
O869       Zr872   2.400       .  S
O869       Zr889   2.403       .  S
O869        H906   0.965       .  S
O870       Zr873   2.386       .  S
O870       Zr889   2.392       .  S
Zr871       O896   2.433       .  S
Zr871       O890   2.449       .  S
Zr871       O898   2.451       .  S
Zr871       O886   2.417       .  S
Zr871       O877   2.405       .  S
Zr871       O878   2.412       .  S
Zr871       O879   2.387       .  S
Zr871       O880   2.384       .  S
Zr872       O891   2.436       .  S
Zr872       O884   2.434       .  S
Zr872       O885   2.434       .  S
Zr872       O878   2.392       .  S
Zr872       O879   2.393       .  S
Zr873       O875   2.436       .  S
Zr873       O897   2.439       .  S
Zr873       O899   2.417       .  S
Zr873       O877   2.391       .  S
Zr873       O880   2.390       .  S
Zr874       O900   2.435       .  S
Zr874       O901   2.435       .  S
Zr874       O876   2.438       .  S
Zr874       O877   2.402       .  S
Zr874       O878   2.399       .  S
O875        H912   0.990       .  S
O876        H907   0.990       .  S
O876        H921   0.990       .  S
O878        H904   0.969       .  S
O879       Zr889   2.371       .  S
O880       Zr889   2.381       .  S
O880        H905   0.974       .  S
C881       C1361   1.487       .  S
C882       C1417   1.489       .  S
C883       C1585   1.497       .  S
O884        H920   0.990       .  S
O885        C887   1.287       .  A
O886        C887   1.281       .  A
C887       C1454   1.478       .  S
O888       Zr889   2.436       .  S
O888        H917   0.990       .  S
Zr889       O892   2.435       .  S
Zr889       O893   2.438       .  S
Zr889       O894   2.432       .  S
O890        C895   1.286       .  A
O891        H908   0.990       .  S
O891        H923   0.990       .  S
O892        H909   0.990       .  S
O893        H913   0.990       .  S
O893        H922   0.990       .  S
O894        C895   1.285       .  A
C895       C1398   1.488       .  S
O896        H915   0.990       .  S
O896        H919   0.990       .  S
O897        H911   0.990       .  S
O897        H918   0.990       .  S
O898        C902   1.286       .  A
O899        C902   1.283       .  A
O900        H910   0.990       .  S
O901        H914   0.990       .  S
C902       C1669   1.496       .  S
Zr925       O926   2.436       .  S
Zr925       O927   2.449       .  S
Zr925       O928   2.424       .  S
Zr925       O931   2.431       .  S
Zr925       O933   2.384       .  S
Zr925       O934   2.380       .  S
Zr925       O935   2.408       .  S
Zr925       O936   2.400       .  S
O926        H982   0.990       .  S
O926        H990   0.990       .  S
O927        C947   1.287       .  A
O928        C949   1.282       .  A
O929       Zr939   2.434       .  S
O929        C948   1.284       .  A
O930       Zr938   2.427       .  S
O930        C949   1.285       .  A
O931        C948   1.286       .  A
O932       Zr940   2.434       .  S
O932        C947   1.284       .  A
O933       Zr938   2.396       .  S
O933       Zr940   2.371       .  S
O934       Zr939   2.393       .  S
O934       Zr940   2.378       .  S
O934        H969   0.966       .  S
O935       Zr938   2.397       .  S
O935       Zr955   2.401       .  S
O935        H972   0.969       .  S
O936       Zr939   2.383       .  S
O936       Zr955   2.392       .  S
Zr937       O962   2.440       .  S
Zr937       O956   2.460       .  S
Zr937       O964   2.438       .  S
Zr937       O952   2.437       .  S
Zr937       O943   2.395       .  S
Zr937       O944   2.410       .  S
Zr937       O945   2.375       .  S
Zr937       O946   2.384       .  S
Zr938       O957   2.438       .  S
Zr938       O950   2.435       .  S
Zr938       O951   2.435       .  S
Zr938       O944   2.397       .  S
Zr938       O945   2.391       .  S
Zr939       O941   2.436       .  S
Zr939       O963   2.438       .  S
Zr939       O965   2.429       .  S
Zr939       O943   2.386       .  S
Zr939       O946   2.388       .  S
Zr940       O966   2.435       .  S
Zr940       O967   2.434       .  S
Zr940       O942   2.438       .  S
Zr940       O943   2.385       .  S
Zr940       O944   2.408       .  S
O941        H978   0.990       .  S
O942        H973   0.990       .  S
O942        H987   0.990       .  S
O944        H970   0.966       .  S
O945       Zr955   2.380       .  S
O946       Zr955   2.386       .  S
O946        H971   0.968       .  S
C947       C1305   1.486       .  S
C948       C1501   1.483       .  S
C949       C1333   1.473       .  S
O950        H986   0.990       .  S
O951        C953   1.283       .  A
O952        C953   1.285       .  A
C953       C1482   1.491       .  S
O954       Zr955   2.439       .  S
O954        H983   0.990       .  S
Zr955       O958   2.437       .  S
Zr955       O959   2.439       .  S
Zr955       O960   2.412       .  S
O956        C961   1.290       .  A
O957        H974   0.990       .  S
O957        H989   0.990       .  S
O958        H975   0.990       .  S
O959        H979   0.990       .  S
O959        H988   0.990       .  S
O960        C961   1.280       .  A
C961       C1277   1.487       .  S
O962        H981   0.991       .  S
O962        H985   0.990       .  S
O963        H977   0.990       .  S
O963        H984   0.990       .  S
O964        C968   1.285       .  A
O965        C968   1.285       .  A
O966        H976   0.990       .  S
O967        H980   0.990       .  S
C968       C2201   1.476       .  S
Zr991       O992   2.438       .  S
Zr991       O993   2.426       .  S
Zr991       O994   2.424       .  S
Zr991       O997   2.441       .  S
Zr991       O999   2.377       .  S
Zr991      O1000   2.380       .  S
Zr991      O1001   2.403       .  S
Zr991      O1002   2.398       .  S
O992       H1048   0.990       .  S
O992       H1056   0.991       .  S
O993       C1013   1.281       .  A
O994       C1015   1.285       .  A
O995      Zr1005   2.423       .  S
O995       C1014   1.283       .  A
O996      Zr1004   2.419   1_545  S
O996       C1015   1.282       .  A
O997       C1014   1.286       .  A
O998      Zr1006   2.445       .  S
O998       C1013   1.288       .  A
O999      Zr1004   2.389   1_545  S
O999      Zr1006   2.364       .  S
O1000     Zr1005   2.392       .  S
O1000     Zr1006   2.377       .  S
O1000      H1035   0.965       .  S
O1001     Zr1004   2.399   1_545  S
O1001     Zr1021   2.402       .  S
O1001      H1038   0.963       .  S
O1002     Zr1005   2.390       .  S
O1002     Zr1021   2.391       .  S
Zr1003     O1028   2.439       .  S
Zr1003     O1022   2.452       .  S
Zr1003     O1030   2.440       .  S
Zr1003     O1018   2.428       .  S
Zr1003     O1009   2.402   1_565  S
Zr1003     O1010   2.415   1_565  S
Zr1003     O1011   2.381       .  S
Zr1003     O1012   2.383   1_565  S
Zr1004     O1023   2.437       .  S
Zr1004     O1016   2.434       .  S
Zr1004     O1017   2.423       .  S
Zr1004     O1010   2.398   1_565  S
Zr1004     O1011   2.392       .  S
Zr1005     O1007   2.434       .  S
Zr1005     O1029   2.437       .  S
Zr1005     O1031   2.426       .  S
Zr1005     O1009   2.387       .  S
Zr1005     O1012   2.389       .  S
Zr1006     O1032   2.437       .  S
Zr1006     O1033   2.436       .  S
Zr1006     O1008   2.437       .  S
Zr1006     O1009   2.395       .  S
Zr1006     O1010   2.406       .  S
O1007      H1044   0.990       .  S
O1008      H1039   0.990       .  S
O1008      H1053   0.990       .  S
O1010      H1036   0.964   1_545  S
O1011     Zr1021   2.379   1_565  S
O1012     Zr1021   2.385       .  S
O1012      H1037   0.958   1_545  S
C1013      C1426   1.487       .  S
C1014      C1249   1.474       .  S
C1015      C1342   1.478       .  S
O1016      H1052   0.990       .  S
O1017      C1019   1.282       .  A
O1018      C1019   1.281       .  A
C1019      C1221   1.478       .  S
O1020     Zr1021   2.439       .  S
O1020      H1049   0.991       .  S
Zr1021     O1024   2.437   1_545  S
Zr1021     O1025   2.440       .  S
Zr1021     O1026   2.420   1_545  S
O1022      C1027   1.287       .  A
O1023      H1040   0.990       .  S
O1023      H1055   0.990       .  S
O1024      H1041   0.990       .  S
O1025      H1045   0.990       .  S
O1025      H1054   0.990       .  S
O1026      C1027   1.281       .  A
C1027      C1445   1.487       .  S
O1028      H1047   0.991       .  S
O1028      H1051   0.990       .  S
O1029      H1043   0.990       .  S
O1029      H1050   0.990       .  S
O1030      C1034   1.284   1_565  A
O1031      C1034   1.285       .  A
O1032      H1042   0.990       .  S
O1033      H1046   0.990       .  S
C1034      C1622   1.487       .  S
Zr1057     O1058   2.434       .  S
Zr1057     O1059   2.429       .  S
Zr1057     O1060   2.431       .  S
Zr1057     O1063   2.435       .  S
Zr1057     O1065   2.383   1_655  S
Zr1057     O1066   2.383       .  S
Zr1057     O1067   2.405   1_655  S
Zr1057     O1068   2.395       .  S
O1058      H1114   0.989       .  S
O1058      H1122   0.990       .  S
O1059      C1079   1.283       .  A
O1060      C1081   1.284       .  A
O1061     Zr1071   2.424       .  S
O1061      C1080   1.283       .  A
O1062     Zr1070   2.455       .  S
O1062      C1081   1.290   1_455  A
O1063      C1080   1.287       .  A
O1064     Zr1072   2.439       .  S
O1064      C1079   1.288       .  A
O1065     Zr1070   2.388       .  S
O1065     Zr1072   2.367   1_455  S
O1066     Zr1071   2.384       .  S
O1066     Zr1072   2.377       .  S
O1066      H1101   0.966       .  S
O1067     Zr1070   2.394       .  S
O1067     Zr1087   2.402       .  S
O1067      H1104   0.974       .  S
O1068     Zr1071   2.383       .  S
O1068     Zr1087   2.389   1_655  S
Zr1069     O1094   2.439       .  S
Zr1069     O1088   2.450       .  S
Zr1069     O1096   2.468       .  S
Zr1069     O1084   2.449       .  S
Zr1069     O1075   2.401       .  S
Zr1069     O1076   2.418       .  S
Zr1069     O1077   2.383       .  S
Zr1069     O1078   2.384       .  S
Zr1070     O1089   2.435       .  S
Zr1070     O1082   2.436       .  S
Zr1070     O1083   2.440       .  S
Zr1070     O1076   2.406       .  S
Zr1070     O1077   2.395       .  S
Zr1071     O1073   2.433       .  S
Zr1071     O1095   2.440       .  S
Zr1071     O1097   2.408   1_655  S
Zr1071     O1075   2.393   1_655  S
Zr1071     O1078   2.393   1_655  S
Zr1072     O1098   2.435       .  S
Zr1072     O1099   2.436   1_655  S
Zr1072     O1074   2.438       .  S
Zr1072     O1075   2.396   1_655  S
Zr1072     O1076   2.404   1_655  S
O1073      H1110   0.990       .  S
O1074      H1105   0.990       .  S
O1074      H1119   0.990       .  S
O1076      H1102   0.968       .  S
O1077     Zr1087   2.370       .  S
O1078     Zr1087   2.382       .  S
O1078      H1103   0.963       .  S
C1079      C1258   1.495       .  S
C1080      C1370   1.485       .  S
C1081      C1193   1.492       .  S
O1082      H1118   0.990       .  S
O1083      C1085   1.285       .  A
O1084      C1085   1.289       .  A
C1085      C1389   1.500       .  S
O1086     Zr1087   2.434       .  S
O1086      H1115   0.990       .  S
Zr1087     O1090   2.435       .  S
Zr1087     O1091   2.437       .  S
Zr1087     O1092   2.427       .  S
O1088      C1093   1.286       .  A
O1089      H1106   0.990       .  S
O1089      H1121   0.990       .  S
O1090      H1107   0.990       .  S
O1091      H1111   0.990       .  S
O1091      H1120   0.989       .  S
O1092      C1093   1.284       .  A
C1093      C1230   1.496       .  S
O1094      H1113   0.990       .  S
O1094      H1117   0.990       .  S
O1095      H1109   0.990       .  S
O1095      H1116   0.989       .  S
O1096      C1100   1.293       .  A
O1097      C1100   1.279       .  A
O1098      H1108   0.990       .  S
O1099      H1112   0.990       .  S
C1100      C1958   1.497       .  S
Zr1123     O1124   2.438       .  S
Zr1123     O1125   2.420       .  S
Zr1123     O1126   2.437       .  S
Zr1123     O1129   2.431       .  S
Zr1123     O1131   2.377       .  S
Zr1123     O1132   2.383       .  S
Zr1123     O1133   2.402       .  S
Zr1123     O1134   2.403       .  S
O1124      H1180   0.991       .  S
O1124      H1188   0.990       .  S
O1125      C1145   1.281       .  A
O1126      C1147   1.287       .  A
O1127     Zr1137   2.427       .  S
O1127      C1146   1.286       .  A
O1128     Zr1136   2.436       .  S
O1128      C1147   1.284       .  A
O1129      C1146   1.284       .  A
O1130     Zr1138   2.438       .  S
O1130      C1145   1.287       .  A
O1131     Zr1136   2.384       .  S
O1131     Zr1138   2.370       .  S
O1132     Zr1137   2.387       .  S
O1132     Zr1138   2.370       .  S
O1132      H1167   0.965       .  S
O1133     Zr1136   2.398       .  S
O1133     Zr1153   2.402       .  S
O1133      H1170   0.966       .  S
O1134     Zr1137   2.387       .  S
O1134     Zr1153   2.392       .  S
Zr1135     O1160   2.438       .  S
Zr1135     O1154   2.456       .  S
Zr1135     O1162   2.464       .  S
Zr1135     O1150   2.445       .  S
Zr1135     O1141   2.403       .  S
Zr1135     O1142   2.416       .  S
Zr1135     O1143   2.384       .  S
Zr1135     O1144   2.388       .  S
Zr1136     O1155   2.438       .  S
Zr1136     O1148   2.434       .  S
Zr1136     O1149   2.425       .  S
Zr1136     O1142   2.395       .  S
Zr1136     O1143   2.389       .  S
Zr1137     O1139   2.436       .  S
Zr1137     O1161   2.439       .  S
Zr1137     O1163   2.414       .  S
Zr1137     O1141   2.391       .  S
Zr1137     O1144   2.396       .  S
Zr1138     O1164   2.437       .  S
Zr1138     O1165   2.435       .  S
Zr1138     O1140   2.436       .  S
Zr1138     O1141   2.391       .  S
Zr1138     O1142   2.405       .  S
O1139      H1176   0.990       .  S
O1140      H1171   0.990       .  S
O1140      H1185   0.990       .  S
O1142      H1168   0.965       .  S
O1143     Zr1153   2.370       .  S
O1144     Zr1153   2.380       .  S
O1144      H1169   0.970       .  S
C1145      C1566   1.485       .  S
C1146      C1314   1.483       .  S
C1147      C1202   1.493       .  S
O1148      H1184   0.990       .  S
O1149      C1151   1.286       .  A
O1150      C1151   1.286       .  A
C1151      C1286   1.492   1_655  S
O1152     Zr1153   2.435       .  S
O1152      H1181   0.990       .  S
Zr1153     O1156   2.434       .  S
Zr1153     O1157   2.439       .  S
Zr1153     O1158   2.425       .  S
O1154      C1159   1.287       .  A
O1155      H1172   0.990       .  S
O1155      H1187   0.990       .  S
O1156      H1173   0.990       .  S
O1157      H1177   0.990       .  S
O1157      H1186   0.990       .  S
O1158      C1159   1.285       .  A
C1159      C1538   1.498       .  S
O1160      H1179   0.990       .  S
O1160      H1183   0.990       .  S
O1161      H1175   0.990       .  S
O1161      H1182   0.990       .  S
O1162      C1166   1.292       .  A
O1163      C1166   1.281       .  A
O1164      H1174   0.990       .  S
O1165      H1178   0.990       .  S
C1166      C2537   1.496       .  S
C1189      C1190   1.400       .  A
C1189      C1194   1.397       .  A
C1189      H1199   1.082       .  S
C1190      C1195   1.496       .  S
C1190      C1191   1.419       .  A
C1191      C1192   1.406   1_655  A
C1191      N1196   1.429   1_655  S
C1192      C1193   1.405   1_455  A
C1192      H1197   1.084       .  S
C1193      C1194   1.416       .  A
C1194      N1198   1.426       .  S
C1195      C1200   1.419       .  A
C1195      C1204   1.403       .  A
N1196      O1211   1.262       .  A
N1196      O1212   1.262   1_455  A
N1198      O1209   1.262       .  A
N1198      O1210   1.262       .  A
C1200      C1201   1.399       .  A
C1200      N1205   1.430       .  S
C1201      C1202   1.404       .  A
C1201      H1206   1.084       .  S
C1202      C1203   1.417       .  A
C1203      C1204   1.403       .  A
C1203      N1207   1.427   1_655  S
C1204      H1208   1.082   1_655  S
N1205      O1215   1.263       .  A
N1205      O1216   1.262       .  A
N1207      O1213   1.262       .  A
N1207      O1214   1.262       .  A
C1217      C1218   1.408       .  A
C1217      C1222   1.406       .  A
C1217      H1227   1.084       .  S
C1218      C1223   1.489       .  S
C1218      C1219   1.412       .  A
C1219      C1220   1.399       .  A
C1219      N1224   1.427       .  S
C1220      C1221   1.400       .  A
C1220      H1225   1.084       .  S
C1221      C1222   1.409       .  A
C1222      N1226   1.431       .  S
C1223      C1228   1.410       .  A
C1223      C1232   1.404       .  A
N1224      O1239   1.262       .  A
N1224      O1240   1.262       .  A
N1226      O1237   1.263       .  A
N1226      O1238   1.262       .  A
C1228      C1229   1.400       .  A
C1228      N1233   1.428       .  S
C1229      C1230   1.407       .  A
C1229      H1234   1.084       .  S
C1230      C1231   1.418       .  A
C1231      C1232   1.408       .  A
C1231      N1235   1.428       .  S
C1232      H1236   1.084       .  S
N1233      O1243   1.262       .  A
N1233      O1244   1.262       .  A
N1235      O1241   1.262       .  A
N1235      O1242   1.262       .  A
C1245      C1246   1.402       .  A
C1245      C1250   1.397       .  A
C1245      H1255   1.083       .  S
C1246      C1251   1.490       .  S
C1246      C1247   1.419       .  A
C1247      C1248   1.401       .  A
C1247      N1252   1.429       .  S
C1248      C1249   1.400       .  A
C1248      H1253   1.084       .  S
C1249      C1250   1.409       .  A
C1250      N1254   1.428       .  S
C1251      C1256   1.415       .  A
C1251      C1260   1.401       .  A
N1252      O1267   1.262       .  A
N1252      O1268   1.262       .  A
N1254      O1265   1.262       .  A
N1254      O1266   1.262       .  A
C1256      C1257   1.397       .  A
C1256      N1261   1.430       .  S
C1257      C1258   1.406       .  A
C1257      H1262   1.083       .  S
C1258      C1259   1.420       .  A
C1259      C1260   1.401       .  A
C1259      N1263   1.427       .  S
C1260      H1264   1.083       .  S
N1261      O1271   1.262       .  A
N1261      O1272   1.262       .  A
N1263      O1269   1.262       .  A
N1263      O1270   1.261       .  A
C1273      C1274   1.400       .  A
C1273      C1278   1.399       .  A
C1273      H1283   1.083       .  S
C1274      C1279   1.489       .  S
C1274      C1275   1.415       .  A
C1275      C1276   1.402       .  A
C1275      N1280   1.428       .  S
C1276      C1277   1.403       .  A
C1276      H1281   1.084       .  S
C1277      C1278   1.417       .  A
C1278      N1282   1.428       .  S
C1279      C1284   1.414       .  A
C1279      C1288   1.402       .  A
N1280      O1295   1.262       .  A
N1280      O1296   1.262       .  A
N1282      O1293   1.262       .  A
N1282      O1294   1.262       .  A
C1284      C1285   1.397       .  A
C1284      N1289   1.430       .  S
C1285      C1286   1.406       .  A
C1285      H1290   1.084       .  S
C1286      C1287   1.416       .  A
C1287      C1288   1.403       .  A
C1287      N1291   1.427       .  S
C1288      H1292   1.083       .  S
N1289      O1299   1.262       .  A
N1289      O1300   1.262       .  A
N1291      O1297   1.262       .  A
N1291      O1298   1.262       .  A
C1301      C1302   1.394       .  A
C1301      C1306   1.396       .  A
C1301      H1311   1.084       .  S
C1302      C1307   1.472       .  S
C1302      C1303   1.404       .  A
C1303      C1304   1.407       .  A
C1303      N1308   1.430       .  S
C1304      C1305   1.411       .  A
C1304      H1309   1.084       .  S
C1305      C1306   1.416       .  A
C1306      N1310   1.427       .  S
C1307      C1312   1.404       .  A
C1307      C1316   1.400       .  A
N1308      O1323   1.262       .  A
N1308      O1324   1.262       .  A
N1310      O1321   1.262       .  A
N1310      O1322   1.262       .  A
C1312      C1313   1.394       .  A
C1312      N1317   1.428       .  S
C1313      C1314   1.406       .  A
C1313      H1318   1.084       .  S
C1314      C1315   1.417       .  A
C1315      C1316   1.401       .  A
C1315      N1319   1.429       .  S
C1316      H1320   1.084       .  S
N1317      O1327   1.262       .  A
N1317      O1328   1.262       .  A
N1319      O1325   1.262       .  A
N1319      O1326   1.262       .  A
C1329      C1330   1.397       .  A
C1329      C1334   1.395       .  A
C1329      H1339   1.084       .  S
C1330      C1335   1.470       .  S
C1330      C1331   1.408       .  A
C1331      C1332   1.396       .  A
C1331      N1336   1.428       .  S
C1332      C1333   1.403       .  A
C1332      H1337   1.084       .  S
C1333      C1334   1.414       .  A
C1334      N1338   1.427       .  S
C1335      C1340   1.408       .  A
C1335      C1344   1.398       .  A
N1336      O1351   1.262       .  A
N1336      O1352   1.262       .  A
N1338      O1349   1.262       .  A
N1338      O1350   1.262       .  A
C1340      C1341   1.394       .  A
C1340      N1345   1.428       .  S
C1341      C1342   1.404       .  A
C1341      H1346   1.084       .  S
C1342      C1343   1.416       .  A
C1343      C1344   1.398       .  A
C1343      N1347   1.429       .  S
C1344      H1348   1.084       .  S
N1345      O1355   1.262       .  A
N1345      O1356   1.262       .  A
N1347      O1353   1.262   1_545  A
N1347      O1354   1.262       .  A
C1357      C1358   1.402       .  A
C1357      C1362   1.406       .  A
C1357      H1367   1.084       .  S
C1358      C1363   1.486       .  S
C1358      C1359   1.413       .  A
C1359      C1360   1.397       .  A
C1359      N1364   1.429       .  S
C1360      C1361   1.402       .  A
C1360      H1365   1.084       .  S
C1361      C1362   1.417       .  A
C1362      N1366   1.428       .  S
C1363      C1368   1.413       .  A
C1363      C1372   1.400       .  A
N1364      O1379   1.262       .  A
N1364      O1380   1.262       .  A
N1366      O1377   1.262       .  A
N1366      O1378   1.262       .  A
C1368      C1369   1.402       .  A
C1368      N1373   1.428       .  S
C1369      C1370   1.404       .  A
C1369      H1374   1.081       .  S
C1370      C1371   1.415       .  A
C1371      C1372   1.396       .  A
C1371      N1375   1.428       .  S
C1372      H1376   1.084       .  S
N1373      O1383   1.262       .  A
N1373      O1384   1.262       .  A
N1375      O1381   1.262       .  A
N1375      O1382   1.262       .  A
C1385      C1386   1.402       .  A
C1385      C1390   1.403       .  A
C1385      H1395   1.084       .  S
C1386      C1391   1.494       .  S
C1386      C1387   1.413       .  A
C1387      C1388   1.402       .  A
C1387      N1392   1.428       .  S
C1388      C1389   1.409       .  A
C1388      H1393   1.083       .  S
C1389      C1390   1.419       .  A
C1390      N1394   1.428       .  S
C1391      C1396   1.414       .  A
C1391      C1400   1.405       .  A
N1392      O1407   1.262       .  A
N1392      O1408   1.262       .  A
N1394      O1405   1.262       .  A
N1394      O1406   1.262       .  A
C1396      C1397   1.399       .  A
C1396      N1401   1.429       .  S
C1397      C1398   1.402       .  A
C1397      H1402   1.084       .  S
C1398      C1399   1.415       .  A
C1399      C1400   1.408       .  A
C1399      N1403   1.428       .  S
C1400      H1404   1.083       .  S
N1401      O1411   1.262       .  A
N1401      O1412   1.262       .  A
N1403      O1409   1.262       .  A
N1403      O1410   1.262       .  A
C1413      C1414   1.399       .  A
C1413      C1418   1.398       .  A
C1413      H1423   1.084       .  S
C1414      C1419   1.488       .  S
C1414      C1415   1.414       .  A
C1415      C1416   1.404       .  A
C1415      N1420   1.428       .  S
C1416      C1417   1.405       .  A
C1416      H1421   1.084       .  S
C1417      C1418   1.417       .  A
C1418      N1422   1.428       .  S
C1419      C1424   1.414       .  A
C1419      C1428   1.402       .  A
N1420      O1435   1.262       .  A
N1420      O1436   1.262       .  A
N1422      O1433   1.262       .  A
N1422      O1434   1.262       .  A
C1424      C1425   1.397       .  A
C1424      N1429   1.429       .  S
C1425      C1426   1.402       .  A
C1425      H1430   1.084       .  S
C1426      C1427   1.418       .  A
C1427      C1428   1.406       .  A
C1427      N1431   1.429       .  S
C1428      H1432   1.084       .  S
N1429      O1439   1.262       .  A
N1429      O1440   1.262       .  A
N1431      O1437   1.262       .  A
N1431      O1438   1.262       .  A
C1441      C1442   1.393       .  A
C1441      C1446   1.395       .  A
C1441      H1451   1.084       .  S
C1442      C1447   1.469       .  S
C1442      C1443   1.404       .  A
C1443      C1444   1.406       .  A
C1443      N1448   1.430       .  S
C1444      C1445   1.411       .  A
C1444      H1449   1.084       .  S
C1445      C1446   1.417       .  A
C1446      N1450   1.428       .  S
C1447      C1452   1.405       .  A
C1447      C1456   1.397       .  A
N1448      O1463   1.262       .  A
N1448      O1464   1.262       .  A
N1450      O1461   1.262       .  A
N1450      O1462   1.262       .  A
C1452      C1453   1.394       .  A
C1452      N1457   1.428       .  S
C1453      C1454   1.403       .  A
C1453      H1458   1.084       .  S
C1454      C1455   1.417       .  A
C1455      C1456   1.399       .  A
C1455      N1459   1.428       .  S
C1456      H1460   1.084       .  S
N1457      O1467   1.262       .  A
N1457      O1468   1.262       .  A
N1459      O1465   1.262       .  A
N1459      O1466   1.262       .  A
C1469      C1470   1.399       .  A
C1469      C1474   1.395       .  A
C1469      H1479   1.085       .  S
C1470      C1475   1.483       .  S
C1470      C1471   1.413       .  A
C1471      C1472   1.404       .  A
C1471      N1476   1.428       .  S
C1472      C1473   1.404       .  A
C1472      H1477   1.084       .  S
C1473      C1474   1.414       .  A
C1474      N1478   1.428       .  S
C1475      C1480   1.408   1_565  A
C1475      C1484   1.404       .  A
N1476      O1491   1.262       .  A
N1476      O1492   1.261       .  A
N1478      O1489   1.262   1_455  A
N1478      O1490   1.262       .  A
C1480      C1481   1.399       .  A
C1480      N1485   1.428       .  S
C1481      C1482   1.408       .  A
C1481      H1486   1.084       .  S
C1482      C1483   1.416   1_545  A
C1483      C1484   1.402       .  A
C1483      N1487   1.429       .  S
C1484      H1488   1.084       .  S
N1485      O1495   1.262       .  A
N1485      O1496   1.262       .  A
N1487      O1493   1.262       .  A
N1487      O1494   1.262       .  A
C1497      C1498   1.400       .  A
C1497      C1502   1.398       .  A
C1497      H1507   1.084       .  S
C1498      C1503   1.486       .  S
C1498      C1499   1.414       .  A
C1499      C1500   1.401       .  A
C1499      N1504   1.428       .  S
C1500      C1501   1.404       .  A
C1500      H1505   1.084       .  S
C1501      C1502   1.414       .  A
C1502      N1506   1.428       .  S
C1503      C1508   1.413       .  A
C1503      C1512   1.401       .  A
N1504      O1519   1.262       .  A
N1504      O1520   1.262       .  A
N1506      O1517   1.262       .  A
N1506      O1518   1.262       .  A
C1508      C1509   1.396       .  A
C1508      N1513   1.429       .  S
C1509      C1510   1.404       .  A
C1509      H1514   1.084       .  S
C1510      C1511   1.419       .  A
C1511      C1512   1.404       .  A
C1511      N1515   1.429       .  S
C1512      H1516   1.084       .  S
N1513      O1523   1.262       .  A
N1513      O1524   1.262       .  A
N1515      O1521   1.262       .  A
N1515      O1522   1.262       .  A
C1525      C1526   1.402       .  A
C1525      C1530   1.404       .  A
C1525      H1535   1.084       .  S
C1526      C1531   1.486       .  S
C1526      C1527   1.410       .  A
C1527      C1528   1.404       .  A
C1527      N1532   1.427       .  S
C1528      C1529   1.403       .  A
C1528      H1533   1.084       .  S
C1529      C1530   1.414       .  A
C1530      N1534   1.428       .  S
C1531      C1536   1.406       .  A
C1531      C1540   1.403   1_565  A
N1532      O1547   1.262       .  A
N1532      O1548   1.262       .  A
N1534      O1545   1.262       .  A
N1534      O1546   1.262       .  A
C1536      C1537   1.398   1_565  A
C1536      N1541   1.427       .  S
C1537      C1538   1.408       .  A
C1537      H1542   1.084       .  S
C1538      C1539   1.419       .  A
C1539      C1540   1.409       .  A
C1539      N1543   1.428       .  S
C1540      H1544   1.084   1_545  S
N1541      O1551   1.262       .  A
N1541      O1552   1.262       .  A
N1543      O1549   1.262       .  A
N1543      O1550   1.262       .  A
C1553      C1554   1.400       .  A
C1553      C1558   1.395       .  A
C1553      H1563   1.082       .  S
C1554      C1559   1.490       .  S
C1554      C1555   1.418       .  A
C1555      C1556   1.400       .  A
C1555      N1560   1.429       .  S
C1556      C1557   1.402       .  A
C1556      H1561   1.084       .  S
C1557      C1558   1.417       .  A
C1558      N1562   1.429       .  S
C1559      C1564   1.418       .  A
C1559      C1568   1.402       .  A
N1560      O1575   1.262       .  A
N1560      O1576   1.262       .  A
N1562      O1573   1.262       .  A
N1562      O1574   1.262       .  A
C1564      C1565   1.395       .  A
C1564      N1569   1.430       .  S
C1565      C1566   1.401       .  A
C1565      H1570   1.084       .  S
C1566      C1567   1.416       .  A
C1567      C1568   1.401       .  A
C1567      N1571   1.428       .  S
C1568      H1572   1.082       .  S
N1569      O1579   1.263       .  A
N1569      O1580   1.262       .  A
N1571      O1577   1.262       .  A
N1571      O1578   1.262       .  A
C1581      C1582   1.402       .  A
C1581      C1586   1.405       .  A
C1581      H1591   1.084       .  S
C1582      C1587   1.486       .  S
C1582      C1583   1.410       .  A
C1583      C1584   1.397       .  A
C1583      N1588   1.429       .  S
C1584      C1585   1.407       .  A
C1584      H1589   1.083       .  S
C1585      C1586   1.420       .  A
C1586      N1590   1.428       .  S
C1587      C1592   1.413       .  A
C1587      C1596   1.400       .  A
N1588      O1603   1.262       .  A
N1588      O1604   1.262       .  A
N1590      O1601   1.262       .  A
N1590      O1602   1.262       .  A
C1592      C1593   1.401       .  A
C1592      N1597   1.428       .  S
C1593      C1594   1.403       .  A
C1593      H1598   1.084       .  S
C1594      C1595   1.414       .  A
C1595      C1596   1.400       .  A
C1595      N1599   1.427       .  S
C1596      H1600   1.084       .  S
N1597      O1607   1.262       .  A
N1597      O1608   1.262       .  A
N1599      O1605   1.262       .  A
N1599      O1606   1.262       .  A
C1609      C1610   1.399       .  A
C1609      C1614   1.402       .  A
C1609      H1619   1.084       .  S
C1610      C1615   1.481   1_554  S
C1610      C1611   1.411       .  A
C1611      C1612   1.397       .  A
C1611      N1616   1.429       .  S
C1612      C1613   1.404       .  A
C1612      H1617   1.084       .  S
C1613      C1614   1.417       .  A
C1614      N1618   1.428       .  S
C1615      C1620   1.409       .  A
C1615      C1624   1.400       .  A
N1616      O1631   1.262       .  A
N1616      O1632   1.262       .  A
N1618      O1629   1.262       .  A
N1618      O1630   1.262   1_545  A
C1620      C1621   1.398       .  A
C1620      N1625   1.428       .  S
C1621      C1622   1.406       .  A
C1621      H1626   1.084       .  S
C1622      C1623   1.417       .  A
C1623      C1624   1.401       .  A
C1623      N1627   1.427   1_545  S
C1624      H1628   1.084   1_545  S
N1625      O1635   1.262       .  A
N1625      O1636   1.262       .  A
N1627      O1633   1.262       .  A
N1627      O1634   1.262       .  A
C1637      C1638   1.399       .  A
C1637      C1642   1.398       .  A
C1637      H1647   1.083       .  S
C1638      C1643   1.485       .  S
C1638      C1639   1.413       .  A
C1639      C1640   1.398       .  A
C1639      N1644   1.429   1_565  S
C1640      C1641   1.406       .  A
C1640      H1645   1.084       .  S
C1641      C1642   1.420       .  A
C1642      N1646   1.428       .  S
C1643      C1648   1.415       .  A
C1643      C1652   1.402       .  A
N1644      O1659   1.262       .  A
N1644      O1660   1.262       .  A
N1646      O1657   1.262       .  A
N1646      O1658   1.262       .  A
C1648      C1649   1.396       .  A
C1648      N1653   1.429       .  S
C1649      C1650   1.401       .  A
C1649      H1654   1.084       .  S
C1650      C1651   1.414       .  A
C1651      C1652   1.400       .  A
C1651      N1655   1.428   1_565  S
C1652      H1656   1.083       .  S
N1653      O1663   1.262       .  A
N1653      O1664   1.262       .  A
N1655      O1661   1.262   1_545  A
N1655      O1662   1.262       .  A
C1665      C1666   1.399       .  A
C1665      C1670   1.402       .  A
C1665      H1675   1.084       .  S
C1666      C1671   1.478   1_556  S
C1666      C1667   1.404       .  A
C1667      C1668   1.397       .  A
C1667      N1672   1.428       .  S
C1668      C1669   1.411       .  A
C1668      H1673   1.083       .  S
C1669      C1670   1.419       .  A
C1670      N1674   1.427       .  S
C1671      C1676   1.408       .  A
C1671      C1680   1.400       .  A
N1672      O1687   1.262       .  A
N1672      O1688   1.262       .  A
N1674      O1685   1.262       .  A
N1674      O1686   1.262       .  A
C1676      C1677   1.397       .  A
C1676      N1681   1.428       .  S
C1677      C1678   1.402       .  A
C1677      H1682   1.084       .  S
C1678      C1679   1.417       .  A
C1679      C1680   1.404       .  A
C1679      N1683   1.428       .  S
C1680      H1684   1.084       .  S
N1681      O1691   1.262       .  A
N1681      O1692   1.262       .  A
N1683      O1689   1.262       .  A
N1683      O1690   1.262       .  A
C1693      C1694   1.399       .  A
C1693      C1698   1.401       .  A
C1693      H1703   1.084       .  S
C1694      C1699   1.481       .  S
C1694      C1695   1.412       .  A
C1695      C1696   1.398       .  A
C1695      N1700   1.429       .  S
C1696      C1697   1.402       .  A
C1696      H1701   1.084       .  S
C1697      C1698   1.417       .  A
C1698      N1702   1.429       .  S
C1699      C1704   1.412       .  A
C1699      C1708   1.398       .  A
N1700      O1715   1.262       .  A
N1700      O1716   1.262       .  A
N1702      O1713   1.262       .  A
N1702      O1714   1.262       .  A
C1704      C1705   1.400       .  A
C1704      N1709   1.428       .  S
C1705      C1706   1.403       .  A
C1705      H1710   1.084       .  S
C1706      C1707   1.418       .  A
C1707      C1708   1.397       .  A
C1707      N1711   1.429       .  S
C1708      H1712   1.084       .  S
N1709      O1719   1.262       .  A
N1709      O1720   1.262       .  A
N1711      O1717   1.262       .  A
N1711      O1718   1.262       .  A
C1721      C1722   1.400       .  A
C1721      C1726   1.401       .  A
C1721      H1731   1.084       .  S
C1722      C1727   1.479       .  S
C1722      C1723   1.409       .  A
C1723      C1724   1.398       .  A
C1723      N1728   1.429       .  S
C1724      C1725   1.404       .  A
C1724      H1729   1.084       .  S
C1725      C1726   1.417       .  A
C1726      N1730   1.429       .  S
C1727      C1732   1.408       .  A
C1727      C1736   1.402       .  A
N1728      O1743   1.262       .  A
N1728      O1744   1.261       .  A
N1730      O1741   1.262       .  A
N1730      O1742   1.262       .  A
C1732      C1733   1.395       .  A
C1732      N1737   1.429       .  S
C1733      C1734   1.406       .  A
C1733      H1738   1.084       .  S
C1734      C1735   1.415       .  A
C1735      C1736   1.404       .  A
C1735      N1739   1.428       .  S
C1736      H1740   1.084       .  S
N1737      O1747   1.262       .  A
N1737      O1748   1.261       .  A
N1739      O1745   1.262       .  A
N1739      O1746   1.262       .  A
C1749      C1750   1.400       .  A
C1749      C1754   1.403       .  A
C1749      H1759   1.084       .  S
C1750      C1755   1.478       .  S
C1750      C1751   1.406       .  A
C1751      C1752   1.397       .  A
C1751      N1756   1.428       .  S
C1752      C1753   1.405       .  A
C1752      H1757   1.084       .  S
C1753      C1754   1.416       .  A
C1754      N1758   1.428       .  S
C1755      C1760   1.404       .  A
C1755      C1764   1.397       .  A
N1756      O1771   1.262       .  A
N1756      O1772   1.262       .  A
N1758      O1769   1.262       .  A
N1758      O1770   1.262       .  A
C1760      C1761   1.406   1_655  A
C1760      N1765   1.429       .  S
C1761      C1762   1.411       .  A
C1761      H1766   1.084       .  S
C1762      C1763   1.417   1_455  A
C1763      C1764   1.401       .  A
C1763      N1767   1.428       .  S
C1764      H1768   1.084       .  S
N1765      O1775   1.262       .  A
N1765      O1776   1.262       .  A
N1767      O1773   1.262       .  A
N1767      O1774   1.262       .  A
C1777      C1778   1.402       .  A
C1777      C1782   1.398       .  A
C1777      H1787   1.084       .  S
C1778      C1783   1.486       .  S
C1778      C1779   1.411       .  A
C1779      C1780   1.401       .  A
C1779      N1784   1.428       .  S
C1780      C1781   1.407       .  A
C1780      H1785   1.084       .  S
C1781      C1782   1.415       .  A
C1782      N1786   1.428       .  S
C1783      C1788   1.411       .  A
C1783      C1792   1.403       .  A
N1784      O1799   1.262       .  A
N1784      O1800   1.261       .  A
N1786      O1797   1.262       .  A
N1786      O1798   1.262       .  A
C1788      C1789   1.401       .  A
C1788      N1793   1.429       .  S
C1789      C1790   1.405       .  A
C1789      H1794   1.078       .  S
C1790      C1791   1.414       .  A
C1791      C1792   1.400       .  A
C1791      N1795   1.428       .  S
C1792      H1796   1.084       .  S
N1793      O1803   1.262       .  A
N1793      O1804   1.261       .  A
N1795      O1801   1.262       .  A
N1795      O1802   1.262       .  A
C1805      C1806   1.400       .  A
C1805      C1810   1.398       .  A
C1805      H1815   1.084       .  S
C1806      C1811   1.478       .  S
C1806      C1807   1.409       .  A
C1807      C1808   1.396       .  A
C1807      N1812   1.428       .  S
C1808      C1809   1.405       .  A
C1808      H1813   1.084       .  S
C1809      C1810   1.414       .  A
C1810      N1814   1.428       .  S
C1811      C1816   1.409       .  A
C1811      C1820   1.402       .  A
N1812      O1827   1.262       .  A
N1812      O1828   1.262       .  A
N1814      O1825   1.262       .  A
N1814      O1826   1.262       .  A
C1816      C1817   1.392       .  A
C1816      N1821   1.429       .  S
C1817      C1818   1.405       .  A
C1817      H1822   1.084       .  S
C1818      C1819   1.415       .  A
C1819      C1820   1.402       .  A
C1819      N1823   1.428       .  S
C1820      H1824   1.084       .  S
N1821      O1831   1.262       .  A
N1821      O1832   1.262       .  A
N1823      O1829   1.262       .  A
N1823      O1830   1.262       .  A
C1833      C1834   1.394       .  A
C1833      C1838   1.398       .  A
C1833      H1843   1.084       .  S
C1834      C1839   1.475       .  S
C1834      C1835   1.405       .  A
C1835      C1836   1.407       .  A
C1835      N1840   1.430       .  S
C1836      C1837   1.410       .  A
C1836      H1841   1.084   1_545  S
C1837      C1838   1.417       .  A
C1838      N1842   1.427       .  S
C1839      C1844   1.406       .  A
C1839      C1848   1.398       .  A
N1840      O1855   1.262       .  A
N1840      O1856   1.262       .  A
N1842      O1853   1.262       .  A
N1842      O1854   1.262       .  A
C1844      C1845   1.397       .  A
C1844      N1849   1.427       .  S
C1845      C1846   1.403       .  A
C1845      H1850   1.084       .  S
C1846      C1847   1.417       .  A
C1847      C1848   1.400       .  A
C1847      N1851   1.429       .  S
C1848      H1852   1.084       .  S
N1849      O1859   1.262       .  A
N1849      O1860   1.262       .  A
N1851      O1857   1.262       .  A
N1851      O1858   1.262       .  A
C1861      C1862   1.401       .  A
C1861      C1866   1.401       .  A
C1861      H1871   1.084       .  S
C1862      C1867   1.482       .  S
C1862      C1863   1.410       .  A
C1863      C1864   1.399       .  A
C1863      N1868   1.428       .  S
C1864      C1865   1.406       .  A
C1864      H1869   1.084       .  S
C1865      C1866   1.415       .  A
C1866      N1870   1.428       .  S
C1867      C1872   1.412       .  A
C1867      C1876   1.405       .  A
N1868      O1883   1.262       .  A
N1868      O1884   1.262       .  A
N1870      O1881   1.262       .  A
N1870      O1882   1.262       .  A
C1872      C1873   1.395       .  A
C1872      N1877   1.427       .  S
C1873      C1874   1.398       .  A
C1873      H1878   1.084       .  S
C1874      C1875   1.410       .  A
C1875      C1876   1.404       .  A
C1875      N1879   1.427       .  S
C1876      H1880   1.084       .  S
N1877      O1887   1.262       .  A
N1877      O1888   1.262       .  A
N1879      O1885   1.262       .  A
N1879      O1886   1.262       .  A
C1889      C1890   1.401       .  A
C1889      C1894   1.400       .  A
C1889      H1899   1.084       .  S
C1890      C1895   1.484       .  S
C1890      C1891   1.411       .  A
C1891      C1892   1.403   1_655  A
C1891      N1896   1.428       .  S
C1892      C1893   1.407       .  A
C1892      H1897   1.084       .  S
C1893      C1894   1.416   1_455  A
C1894      N1898   1.428       .  S
C1895      C1900   1.411       .  A
C1895      C1904   1.400       .  A
N1896      O1911   1.262   1_655  A
N1896      O1912   1.261       .  A
N1898      O1909   1.262       .  A
N1898      O1910   1.262       .  A
C1900      C1901   1.404       .  A
C1900      N1905   1.428       .  S
C1901      C1902   1.405       .  A
C1901      H1906   1.084       .  S
C1902      C1903   1.415       .  A
C1903      C1904   1.398       .  A
C1903      N1907   1.429       .  S
C1904      H1908   1.084       .  S
N1905      O1915   1.262       .  A
N1905      O1916   1.261       .  A
N1907      O1913   1.262       .  A
N1907      O1914   1.262       .  A
C1917      C1918   1.398       .  A
C1917      C1922   1.399       .  A
C1917      H1927   1.084       .  S
C1918      C1923   1.477       .  S
C1918      C1919   1.409       .  A
C1919      C1920   1.399       .  A
C1919      N1924   1.428       .  S
C1920      C1921   1.405       .  A
C1920      H1925   1.084       .  S
C1921      C1922   1.417       .  A
C1922      N1926   1.428       .  S
C1923      C1928   1.409       .  A
C1923      C1932   1.402       .  A
N1924      O1939   1.262       .  A
N1924      O1940   1.261       .  A
N1926      O1937   1.262       .  A
N1926      O1938   1.262       .  A
C1928      C1929   1.397       .  A
C1928      N1933   1.428       .  S
C1929      C1930   1.402       .  A
C1929      H1934   1.084       .  S
C1930      C1931   1.414       .  A
C1931      C1932   1.402       .  A
C1931      N1935   1.429       .  S
C1932      H1936   1.084       .  S
N1933      O1943   1.262       .  A
N1933      O1944   1.261       .  A
N1935      O1941   1.262       .  A
N1935      O1942   1.262       .  A
C1945      C1946   1.399       .  A
C1945      C1950   1.402   1_455  A
C1945      H1955   1.084   1_455  S
C1946      C1951   1.482   1_554  S
C1946      C1947   1.406       .  A
C1947      C1948   1.400       .  A
C1947      N1952   1.427       .  S
C1948      C1949   1.410       .  A
C1948      H1953   1.084       .  S
C1949      C1950   1.419   1_455  A
C1950      N1954   1.427       .  S
C1951      C1956   1.410       .  A
C1951      C1960   1.397       .  A
N1952      O1967   1.262       .  A
N1952      O1968   1.261       .  A
N1954      O1965   1.262       .  A
N1954      O1966   1.262       .  A
C1956      C1957   1.403       .  A
C1956      N1961   1.427       .  S
C1957      C1958   1.406       .  A
C1957      H1962   1.083       .  S
C1958      C1959   1.424       .  A
C1959      C1960   1.401       .  A
C1959      N1963   1.429   1_455  S
C1960      H1964   1.084   1_455  S
N1961      O1971   1.262       .  A
N1961      O1972   1.262       .  A
N1963      O1969   1.262       .  A
N1963      O1970   1.262       .  A
C1973      C1974   1.404       .  A
C1973      C1978   1.405       .  A
C1973      H1983   1.083       .  S
C1974      C1979   1.488       .  S
C1974      C1975   1.414       .  A
C1975      C1976   1.396       .  A
C1975      N1980   1.429       .  S
C1976      C1977   1.401       .  A
C1976      H1981   1.084       .  S
C1977      C1978   1.415       .  A
C1978      N1982   1.428       .  S
C1979      C1984   1.412       .  A
C1979      C1988   1.400       .  A
N1980      O1995   1.262       .  A
N1980      O1996   1.262       .  A
N1982      O1993   1.262       .  A
N1982      O1994   1.262       .  A
C1984      C1985   1.402       .  A
C1984      N1989   1.428       .  S
C1985      C1986   1.408       .  A
C1985      H1990   1.084       .  S
C1986      C1987   1.419       .  A
C1987      C1988   1.398       .  A
C1987      N1991   1.428       .  S
C1988      H1992   1.084       .  S
N1989      O1999   1.262       .  A
N1989      O2000   1.262       .  A
N1991      O1997   1.262       .  A
N1991      O1998   1.262       .  A
C2001      C2002   1.403       .  A
C2001      C2006   1.406       .  A
C2001      H2011   1.083       .  S
C2002      C2007   1.492       .  S
C2002      C2003   1.415       .  A
C2003      C2004   1.398       .  A
C2003      N2008   1.429       .  S
C2004      C2005   1.402       .  A
C2004      H2009   1.084       .  S
C2005      C2006   1.416       .  A
C2006      N2010   1.427       .  S
C2007      C2012   1.414       .  A
C2007      C2016   1.400       .  A
N2008      O2023   1.262       .  A
N2008      O2024   1.262       .  A
N2010      O2021   1.262       .  A
N2010      O2022   1.262       .  A
C2012      C2013   1.403       .  A
C2012      N2017   1.428       .  S
C2013      C2014   1.407       .  A
C2013      H2018   1.084       .  S
C2014      C2015   1.421       .  A
C2015      C2016   1.400       .  A
C2015      N2019   1.429       .  S
C2016      H2020   1.084       .  S
N2017      O2027   1.262       .  A
N2017      O2028   1.262       .  A
N2019      O2025   1.262       .  A
N2019      O2026   1.262       .  A
C2029      C2030   1.403       .  A
C2029      C2034   1.404       .  A
C2029      H2039   1.083       .  S
C2030      C2035   1.486       .  S
C2030      C2031   1.413       .  A
C2031      C2032   1.396       .  A
C2031      N2036   1.429       .  S
C2032      C2033   1.403       .  A
C2032      H2037   1.084       .  S
C2033      C2034   1.415       .  A
C2034      N2038   1.429       .  S
C2035      C2040   1.413       .  A
C2035      C2044   1.401       .  A
N2036      O2051   1.262       .  A
N2036      O2052   1.262       .  A
N2038      O2049   1.262       .  A
N2038      O2050   1.262       .  A
C2040      C2041   1.401       .  A
C2040      N2045   1.429       .  S
C2041      C2042   1.406       .  A
C2041      H2046   1.084       .  S
C2042      C2043   1.415       .  A
C2043      C2044   1.398       .  A
C2043      N2047   1.428       .  S
C2044      H2048   1.083       .  S
N2045      O2055   1.262       .  A
N2045      O2056   1.262       .  A
N2047      O2053   1.262       .  A
N2047      O2054   1.262       .  A
C2057      C2058   1.400       .  A
C2057      C2062   1.404       .  A
C2057      H2067   1.084       .  S
C2058      C2063   1.490       .  S
C2058      C2059   1.411       .  A
C2059      C2060   1.403       .  A
C2059      N2064   1.427       .  S
C2060      C2061   1.407       .  A
C2060      H2065   1.083       .  S
C2061      C2062   1.421       .  A
C2062      N2066   1.429       .  S
C2063      C2068   1.415       .  A
C2063      C2072   1.409       .  A
N2064      O2079   1.262       .  A
N2064      O2080   1.261       .  A
N2066      O2077   1.262       .  A
N2066      O2078   1.262       .  A
C2068      C2069   1.401       .  A
C2068      N2073   1.427       .  S
C2069      C2070   1.396       .  A
C2069      H2074   1.084       .  S
C2070      C2071   1.404       .  A
C2071      C2072   1.406       .  A
C2071      N2075   1.430       .  S
C2072      H2076   1.084       .  S
N2073      O2083   1.262       .  A
N2073      O2084   1.262       .  A
N2075      O2081   1.262       .  A
N2075      O2082   1.262       .  A
C2085      C2086   1.399       .  A
C2085      C2090   1.401       .  A
C2085      H2095   1.084       .  S
C2086      C2091   1.479       .  S
C2086      C2087   1.408       .  A
C2087      C2088   1.398       .  A
C2087      N2092   1.427       .  S
C2088      C2089   1.405       .  A
C2088      H2093   1.084       .  S
C2089      C2090   1.420       .  A
C2090      N2094   1.429       .  S
C2091      C2096   1.410       .  A
C2091      C2100   1.401       .  A
N2092      O2107   1.262       .  A
N2092      O2108   1.262       .  A
N2094      O2105   1.262       .  A
N2094      O2106   1.262       .  A
C2096      C2097   1.398       .  A
C2096      N2101   1.428       .  S
C2097      C2098   1.403       .  A
C2097      H2102   1.084       .  S
C2098      C2099   1.413       .  A
C2099      C2100   1.401       .  A
C2099      N2103   1.428       .  S
C2100      H2104   1.084       .  S
N2101      O2111   1.262       .  A
N2101      O2112   1.262       .  A
N2103      O2109   1.262       .  A
N2103      O2110   1.262       .  A
C2113      C2114   1.401       .  A
C2113      C2118   1.406       .  A
C2113      H2123   1.084       .  S
C2114      C2119   1.484       .  S
C2114      C2115   1.405       .  A
C2115      C2116   1.399       .  A
C2115      N2120   1.428       .  S
C2116      C2117   1.412       .  A
C2116      H2121   1.083       .  S
C2117      C2118   1.420       .  A
C2118      N2122   1.428       .  S
C2119      C2124   1.408       .  A
C2119      C2128   1.399       .  A
N2120      O2135   1.262       .  A
N2120      O2136   1.262       .  A
N2122      O2133   1.262       .  A
N2122      O2134   1.262       .  A
C2124      C2125   1.401       .  A
C2124      N2129   1.427       .  S
C2125      C2126   1.405       .  A
C2125      H2130   1.084       .  S
C2126      C2127   1.423       .  A
C2127      C2128   1.406       .  A
C2127      N2131   1.429       .  S
C2128      H2132   1.084       .  S
N2129      O2139   1.262       .  A
N2129      O2140   1.261       .  A
N2131      O2137   1.262       .  A
N2131      O2138   1.262       .  A
C2141      C2142   1.397       .  A
C2141      C2146   1.399       .  A
C2141      H2151   1.084       .  S
C2142      C2147   1.475       .  S
C2142      C2143   1.409       .  A
C2143      C2144   1.397       .  A
C2143      N2148   1.429       .  S
C2144      C2145   1.404       .  A
C2144      H2149   1.084       .  S
C2145      C2146   1.419       .  A
C2146      N2150   1.429       .  S
C2147      C2152   1.403       .  A
C2147      C2156   1.402       .  A
N2148      O2163   1.262       .  A
N2148      O2164   1.261       .  A
N2150      O2161   1.262   1_565  A
N2150      O2162   1.262   1_565  A
C2152      C2153   1.392       .  A
C2152      N2157   1.428       .  S
C2153      C2154   1.410       .  A
C2153      H2158   1.083       .  S
C2154      C2155   1.417       .  A
C2155      C2156   1.404       .  A
C2155      N2159   1.428       .  S
C2156      H2160   1.084       .  S
N2157      O2167   1.262       .  A
N2157      O2168   1.261       .  A
N2159      O2165   1.262       .  A
N2159      O2166   1.261       .  A
C2169      C2170   1.401       .  A
C2169      C2174   1.400       .  A
C2169      H2179   1.083       .  S
C2170      C2175   1.486       .  S
C2170      C2171   1.415       .  A
C2171      C2172   1.397       .  A
C2171      N2176   1.429       .  S
C2172      C2173   1.402       .  A
C2172      H2177   1.084       .  S
C2173      C2174   1.415       .  A
C2174      N2178   1.428       .  S
C2175      C2180   1.414       .  A
C2175      C2184   1.399       .  A
N2176      O2191   1.262       .  A
N2176      O2192   1.262       .  A
N2178      O2189   1.262       .  A
N2178      O2190   1.262       .  A
C2180      C2181   1.400       .  A
C2180      N2185   1.429       .  S
C2181      C2182   1.405       .  A
C2181      H2186   1.084       .  S
C2182      C2183   1.419       .  A
C2183      C2184   1.397       .  A
C2183      N2187   1.427       .  S
C2184      H2188   1.083       .  S
N2185      O2195   1.262       .  A
N2185      O2196   1.262       .  A
N2187      O2193   1.262       .  A
N2187      O2194   1.262       .  A
C2197      C2198   1.401       .  A
C2197      C2202   1.396       .  A
C2197      H2207   1.083       .  S
C2198      C2203   1.488       .  S
C2198      C2199   1.416       .  A
C2199      C2200   1.401       .  A
C2199      N2204   1.429       .  S
C2200      C2201   1.402       .  A
C2200      H2205   1.084       .  S
C2201      C2202   1.411       .  A
C2202      N2206   1.427       .  S
C2203      C2208   1.415       .  A
C2203      C2212   1.400       .  A
N2204      O2219   1.262       .  A
N2204      O2220   1.262       .  A
N2206      O2217   1.262       .  A
N2206      O2218   1.262       .  A
C2208      C2209   1.397       .  A
C2208      N2213   1.429       .  S
C2209      C2210   1.403       .  A
C2209      H2214   1.083       .  S
C2210      C2211   1.421       .  A
C2211      C2212   1.402       .  A
C2211      N2215   1.428       .  S
C2212      H2216   1.083       .  S
N2213      O2223   1.262       .  A
N2213      O2224   1.261       .  A
N2215      O2221   1.262       .  A
N2215      O2222   1.262       .  A
C2225      C2226   1.409   1_545  A
C2225      C2230   1.402       .  A
C2225      H2235   1.084       .  S
C2226      C2231   1.487       .  S
C2226      C2227   1.414       .  A
C2227      C2228   1.397   1_565  A
C2227      N2232   1.428       .  S
C2228      C2229   1.397       .  A
C2228      H2233   1.084       .  S
C2229      C2230   1.407       .  A
C2230      N2234   1.432       .  S
C2231      C2236   1.410       .  A
C2231      C2240   1.402       .  A
N2232      O2247   1.262       .  A
N2232      O2248   1.261       .  A
N2234      O2245   1.262       .  A
N2234      O2246   1.262       .  A
C2236      C2237   1.398       .  A
C2236      N2241   1.429       .  S
C2237      C2238   1.409       .  A
C2237      H2242   1.083       .  S
C2238      C2239   1.420       .  A
C2239      C2240   1.405       .  A
C2239      N2243   1.428   1_455  S
C2240      H2244   1.084       .  S
N2241      O2251   1.262       .  A
N2241      O2252   1.262       .  A
N2243      O2249   1.262   1_655  A
N2243      O2250   1.262       .  A
C2253      C2254   1.402       .  A
C2253      C2258   1.403       .  A
C2253      H2263   1.083       .  S
C2254      C2259   1.489       .  S
C2254      C2255   1.414       .  A
C2255      C2256   1.396       .  A
C2255      N2260   1.429       .  S
C2256      C2257   1.403       .  A
C2256      H2261   1.084       .  S
C2257      C2258   1.418       .  A
C2258      N2262   1.428       .  S
C2259      C2264   1.413       .  A
C2259      C2268   1.402       .  A
N2260      O2275   1.262       .  A
N2260      O2276   1.262       .  A
N2262      O2273   1.262       .  A
N2262      O2274   1.262       .  A
C2264      C2265   1.398       .  A
C2264      N2269   1.428       .  S
C2265      C2266   1.404       .  A
C2265      H2270   1.084       .  S
C2266      C2267   1.418       .  A
C2267      C2268   1.399       .  A
C2267      N2271   1.429       .  S
C2268      H2272   1.083       .  S
N2269      O2279   1.262       .  A
N2269      O2280   1.262       .  A
N2271      O2277   1.262       .  A
N2271      O2278   1.262       .  A
C2281      C2282   1.399       .  A
C2281      C2286   1.401       .  A
C2281      H2291   1.084       .  S
C2282      C2287   1.480       .  S
C2282      C2283   1.407       .  A
C2283      C2284   1.399       .  A
C2283      N2288   1.427       .  S
C2284      C2285   1.406       .  A
C2284      H2289   1.084       .  S
C2285      C2286   1.418       .  A
C2286      N2290   1.428       .  S
C2287      C2292   1.408       .  A
C2287      C2296   1.396       .  A
N2288      O2303   1.262       .  A
N2288      O2304   1.261       .  A
N2290      O2301   1.262       .  A
N2290      O2302   1.262       .  A
C2292      C2293   1.400       .  A
C2292      N2297   1.427       .  S
C2293      C2294   1.406       .  A
C2293      H2298   1.083       .  S
C2294      C2295   1.426       .  A
C2295      C2296   1.401       .  A
C2295      N2299   1.429       .  S
C2296      H2300   1.084       .  S
N2297      O2307   1.262       .  A
N2297      O2308   1.261       .  A
N2299      O2305   1.262       .  A
N2299      O2306   1.262       .  A
C2309      C2310   1.399       .  A
C2309      C2314   1.399       .  A
C2309      H2319   1.084       .  S
C2310      C2315   1.475       .  S
C2310      C2311   1.407       .  A
C2311      C2312   1.398       .  A
C2311      N2316   1.428       .  S
C2312      C2313   1.403       .  A
C2312      H2317   1.084       .  S
C2313      C2314   1.414       .  A
C2314      N2318   1.428       .  S
C2315      C2320   1.404       .  A
C2315      C2324   1.395       .  A
N2316      O2331   1.262       .  A
N2316      O2332   1.262       .  A
N2318      O2329   1.262       .  A
N2318      O2330   1.262       .  A
C2320      C2321   1.403   1_655  A
C2320      N2325   1.430       .  S
C2321      C2322   1.411       .  A
C2321      H2326   1.084       .  S
C2322      C2323   1.420       .  A
C2323      C2324   1.402   1_455  A
C2323      N2327   1.427       .  S
C2324      H2328   1.084       .  S
N2325      O2335   1.262       .  A
N2325      O2336   1.262       .  A
N2327      O2333   1.262       .  A
N2327      O2334   1.262       .  A
C2337      C2338   1.398       .  A
C2337      C2342   1.400       .  A
C2337      H2347   1.084       .  S
C2338      C2343   1.480       .  S
C2338      C2339   1.410       .  A
C2339      C2340   1.398       .  A
C2339      N2344   1.428       .  S
C2340      C2341   1.404       .  A
C2340      H2345   1.084       .  S
C2341      C2342   1.422       .  A
C2342      N2346   1.429       .  S
C2343      C2348   1.412       .  A
C2343      C2352   1.399       .  A
N2344      O2359   1.262       .  A
N2344      O2360   1.262       .  A
N2346      O2357   1.262       .  A
N2346      O2358   1.262       .  A
C2348      C2349   1.399       .  A
C2348      N2353   1.428       .  S
C2349      C2350   1.400       .  A
C2349      H2354   1.082       .  S
C2350      C2351   1.414       .  A
C2351      C2352   1.398       .  A
C2351      N2355   1.428       .  S
C2352      H2356   1.084       .  S
N2353      O2363   1.262       .  A
N2353      O2364   1.262       .  A
N2355      O2361   1.262       .  A
N2355      O2362   1.262       .  A
C2365      C2366   1.402       .  A
C2365      C2370   1.403       .  A
C2365      H2375   1.084       .  S
C2366      C2371   1.490       .  S
C2366      C2367   1.412       .  A
C2367      C2368   1.403   1_545  A
C2367      N2372   1.428       .  S
C2368      C2369   1.407       .  A
C2368      H2373   1.084       .  S
C2369      C2370   1.420   1_565  A
C2370      N2374   1.429       .  S
C2371      C2376   1.414       .  A
C2371      C2380   1.402       .  A
N2372      O2387   1.262   1_545  A
N2372      O2388   1.261       .  A
N2374      O2385   1.262       .  A
N2374      O2386   1.262   1_545  A
C2376      C2377   1.406       .  A
C2376      N2381   1.428       .  S
C2377      C2378   1.404       .  A
C2377      H2382   1.084       .  S
C2378      C2379   1.414       .  A
C2379      C2380   1.401       .  A
C2379      N2383   1.429       .  S
C2380      H2384   1.084       .  S
N2381      O2391   1.262       .  A
N2381      O2392   1.261       .  A
N2383      O2389   1.262       .  A
N2383      O2390   1.262       .  A
C2393      C2394   1.399       .  A
C2393      C2398   1.403       .  A
C2393      H2403   1.084       .  S
C2394      C2399   1.488       .  S
C2394      C2395   1.413       .  A
C2395      C2396   1.400       .  A
C2395      N2400   1.429       .  S
C2396      C2397   1.405       .  A
C2396      H2401   1.084       .  S
C2397      C2398   1.419       .  A
C2398      N2402   1.427       .  S
C2399      C2404   1.413       .  A
C2399      C2408   1.401       .  A
N2400      O2415   1.262       .  A
N2400      O2416   1.262       .  A
N2402      O2413   1.262       .  A
N2402      O2414   1.262       .  A
C2404      C2405   1.400       .  A
C2404      N2409   1.428       .  S
C2405      C2406   1.405       .  A
C2405      H2410   1.084       .  S
C2406      C2407   1.415       .  A
C2407      C2408   1.400       .  A
C2407      N2411   1.427       .  S
C2408      H2412   1.084       .  S
N2409      O2419   1.262       .  A
N2409      O2420   1.262       .  A
N2411      O2417   1.262       .  A
N2411      O2418   1.262       .  A
C2421      C2422   1.395       .  A
C2421      C2426   1.399       .  A
C2421      H2431   1.084       .  S
C2422      C2427   1.476       .  S
C2422      C2423   1.405       .  A
C2423      C2424   1.408       .  A
C2423      N2428   1.429       .  S
C2424      C2425   1.412       .  A
C2424      H2429   1.084       .  S
C2425      C2426   1.418       .  A
C2426      N2430   1.427       .  S
C2427      C2432   1.408       .  A
C2427      C2436   1.398       .  A
N2428      O2443   1.262       .  A
N2428      O2444   1.262       .  A
N2430      O2441   1.262       .  A
N2430      O2442   1.262       .  A
C2432      C2433   1.401       .  A
C2432      N2437   1.427       .  S
C2433      C2434   1.405       .  A
C2433      H2438   1.084       .  S
C2434      C2435   1.414       .  A
C2435      C2436   1.398       .  A
C2435      N2439   1.428       .  S
C2436      H2440   1.084       .  S
N2437      O2447   1.262       .  A
N2437      O2448   1.262       .  A
N2439      O2445   1.261       .  A
N2439      O2446   1.262       .  A
C2449      C2450   1.398       .  A
C2449      C2454   1.405       .  A
C2449      H2459   1.084       .  S
C2450      C2455   1.492       .  S
C2450      C2451   1.412       .  A
C2451      C2452   1.401       .  A
C2451      N2456   1.427       .  S
C2452      C2453   1.407       .  A
C2452      H2457   1.083       .  S
C2453      C2454   1.424       .  A
C2454      N2458   1.425       .  S
C2455      C2460   1.416       .  A
C2455      C2464   1.400       .  A
N2456      O2471   1.262       .  A
N2456      O2472   1.262       .  A
N2458      O2469   1.260       .  A
N2458      O2470   1.262       .  A
C2460      C2461   1.407       .  A
C2460      N2465   1.428       .  S
C2461      C2462   1.403       .  A
C2461      H2466   1.084       .  S
C2462      C2463   1.414       .  A
C2463      C2464   1.401       .  A
C2463      N2467   1.428       .  S
C2464      H2468   1.084       .  S
N2465      O2475   1.262       .  A
N2465      O2476   1.262       .  A
N2467      O2473   1.262       .  A
N2467      O2474   1.262       .  A
C2477      C2478   1.402       .  A
C2477      C2482   1.402       .  A
C2477      H2487   1.084       .  S
C2478      C2483   1.487       .  S
C2478      C2479   1.412       .  A
C2479      C2480   1.402       .  A
C2479      N2484   1.428       .  S
C2480      C2481   1.404       .  A
C2480      H2485   1.084       .  S
C2481      C2482   1.415       .  A
C2482      N2486   1.427       .  S
C2483      C2488   1.410       .  A
C2483      C2492   1.403       .  A
N2484      O2499   1.262       .  A
N2484      O2500   1.261       .  A
N2486      O2497   1.262       .  A
N2486      O2498   1.262       .  A
C2488      C2489   1.397       .  A
C2488      N2493   1.428       .  S
C2489      C2490   1.407       .  A
C2489      H2494   1.083       .  S
C2490      C2491   1.419       .  A
C2491      C2492   1.405       .  A
C2491      N2495   1.428       .  S
C2492      H2496   1.084       .  S
N2493      O2503   1.262       .  A
N2493      O2504   1.261       .  A
N2495      O2501   1.260       .  A
N2495      O2502   1.261       .  A
C2505      C2506   1.400       .  A
C2505      C2510   1.399       .  A
C2505      H2515   1.084       .  S
C2506      C2511   1.477       .  S
C2506      C2507   1.410       .  A
C2507      C2508   1.396       .  A
C2507      N2512   1.428       .  S
C2508      C2509   1.401       .  A
C2508      H2513   1.083       .  S
C2509      C2510   1.414       .  A
C2510      N2514   1.429       .  S
C2511      C2516   1.409       .  A
C2511      C2520   1.399       .  A
N2512      O2527   1.262       .  A
N2512      O2528   1.262       .  A
N2514      O2525   1.262       .  A
N2514      O2526   1.262       .  A
C2516      C2517   1.396       .  A
C2516      N2521   1.429       .  S
C2517      C2518   1.405   1_655  A
C2517      H2522   1.084   1_655  S
C2518      C2519   1.418       .  A
C2519      C2520   1.400   1_455  A
C2519      N2523   1.428       .  S
C2520      H2524   1.084       .  S
N2521      O2531   1.262       .  A
N2521      O2532   1.262       .  A
N2523      O2529   1.262       .  A
N2523      O2530   1.262       .  A
C2533      C2534   1.397       .  A
C2533      C2538   1.400       .  A
C2533      H2543   1.083       .  S
C2534      C2539   1.488       .  S
C2534      C2535   1.415       .  A
C2535      C2536   1.402       .  A
C2535      N2540   1.429       .  S
C2536      C2537   1.405       .  A
C2536      H2541   1.083       .  S
C2537      C2538   1.422       .  A
C2538      N2542   1.428       .  S
C2539      C2544   1.416       .  A
C2539      C2548   1.402       .  A
N2540      O2555   1.262       .  A
N2540      O2556   1.262       .  A
N2542      O2553   1.262       .  A
N2542      O2554   1.262       .  A
C2544      C2545   1.401       .  A
C2544      N2549   1.429       .  S
C2545      C2546   1.401       .  A
C2545      H2550   1.084       .  S
C2546      C2547   1.410       .  A
C2547      C2548   1.399       .  A
C2547      N2551   1.427       .  S
C2548      H2552   1.083       .  S
N2549      O2559   1.262       .  A
N2549      O2560   1.262       .  A
N2551      O2557   1.262       .  A
N2551      O2558   1.262       .  A
C2561      C2562   1.401       .  A
C2561      C2566   1.397       .  A
C2561      H2571   1.083       .  S
C2562      C2567   1.489       .  S
C2562      C2563   1.414       .  A
C2563      C2564   1.398       .  A
C2563      N2568   1.428       .  S
C2564      C2565   1.405       .  A
C2564      H2569   1.083       .  S
C2565      C2566   1.419       .  A
C2566      N2570   1.429       .  S
C2567      C2572   1.416       .  A
C2567      C2576   1.404       .  A
N2568      O2583   1.262       .  A
N2568      O2584   1.261       .  A
N2570      O2581   1.262       .  A
N2570      O2582   1.262       .  A
C2572      C2573   1.395       .  A
C2572      N2577   1.430       .  S
C2573      C2574   1.401       .  A
C2573      H2578   1.084       .  S
C2574      C2575   1.414       .  A
C2575      C2576   1.403       .  A
C2575      N2579   1.428       .  S
C2576      H2580   1.082       .  S
N2577      O2587   1.262       .  A
N2577      O2588   1.262       .  A
N2579      O2585   1.262       .  A
N2579      O2586   1.262       .  A
C2589      C2590   1.400       .  A
C2589      C2594   1.396   1_565  A
C2589      H2599   1.084       .  S
C2590      C2595   1.483       .  S
C2590      C2591   1.413   1_565  A
C2591      C2592   1.401       .  A
C2591      N2596   1.428       .  S
C2592      C2593   1.404       .  A
C2592      H2597   1.084       .  S
C2593      C2594   1.414       .  A
C2594      N2598   1.428       .  S
C2595      C2600   1.413       .  A
C2595      C2604   1.401       .  A
N2596      O2611   1.262       .  A
N2596      O2612   1.262       .  A
N2598      O2609   1.262       .  A
N2598      O2610   1.262       .  A
C2600      C2601   1.395       .  A
C2600      N2605   1.429       .  S
C2601      C2602   1.402       .  A
C2601      H2606   1.084       .  S
C2602      C2603   1.417       .  A
C2603      C2604   1.402       .  A
C2603      N2607   1.428       .  S
C2604      H2608   1.083       .  S
N2605      O2615   1.262       .  A
N2605      O2616   1.262       .  A
N2607      O2613   1.262       .  A
N2607      O2614   1.262       .  A
C2617      C2618   1.404       .  A
C2617      C2622   1.410       .  A
C2617      H2627   1.084       .  S
C2618      C2623   1.493       .  S
C2618      C2619   1.411       .  A
C2619      C2620   1.399       .  A
C2619      N2624   1.428       .  S
C2620      C2621   1.406       .  A
C2620      H2625   1.084       .  S
C2621      C2622   1.420       .  A
C2622      N2626   1.428       .  S
C2623      C2628   1.413       .  A
C2623      C2632   1.402       .  A
N2624      O2639   1.262       .  A
N2624      O2640   1.262       .  A
N2626      O2637   1.262       .  A
N2626      O2638   1.262       .  A
C2628      C2629   1.405       .  A
C2628      N2633   1.428       .  S
C2629      C2630   1.406       .  A
C2629      H2634   1.084       .  S
C2630      C2631   1.417       .  A
C2631      C2632   1.402       .  A
C2631      N2635   1.428       .  S
C2632      H2636   1.084       .  S
N2633      O2643   1.262       .  A
N2633      O2644   1.262       .  A
N2635      O2641   1.262       .  A
N2635      O2642   1.262       .  A
C2645      C2646   1.402       .  A
C2645      C2650   1.404       .  A
C2645      H2655   1.084       .  S
C2646      C2651   1.489       .  S
C2646      C2647   1.412       .  A
C2647      C2648   1.405       .  A
C2647      N2652   1.428       .  S
C2648      C2649   1.404       .  A
C2648      H2653   1.084   1_455  S
C2649      C2650   1.414       .  A
C2650      N2654   1.428       .  S
C2651      C2656   1.411       .  A
C2651      C2660   1.400       .  A
N2652      O2667   1.262       .  A
N2652      O2668   1.262       .  A
N2654      O2665   1.262       .  A
N2654      O2666   1.262       .  A
C2656      C2657   1.404       .  A
C2656      N2661   1.428       .  S
C2657      C2658   1.409       .  A
C2657      H2662   1.084       .  S
C2658      C2659   1.418       .  A
C2659      C2660   1.402       .  A
C2659      N2663   1.428       .  S
C2660      H2664   1.084       .  S
N2661      O2671   1.262       .  A
N2661      O2672   1.261       .  A
N2663      O2669   1.262       .  A
N2663      O2670   1.262       .  A
C2673      C2674   1.401       .  A
C2673      C2678   1.400       .  A
C2673      H2683   1.083   1_655  S
C2674      C2679   1.486   1_655  S
C2674      C2675   1.415       .  A
C2675      C2676   1.397       .  A
C2675      N2680   1.429       .  S
C2676      C2677   1.401       .  A
C2676      H2681   1.084       .  S
C2677      C2678   1.416       .  A
C2678      N2682   1.428       .  S
C2679      C2684   1.414       .  A
C2679      C2688   1.398       .  A
N2680      O2695   1.262       .  A
N2680      O2696   1.262       .  A
N2682      O2693   1.262   1_655  A
N2682      O2694   1.262       .  A
C2684      C2685   1.402       .  A
C2684      N2689   1.428       .  S
C2685      C2686   1.405       .  A
C2685      H2690   1.084       .  S
C2686      C2687   1.419       .  A
C2687      C2688   1.397       .  A
C2687      N2691   1.428       .  S
C2688      H2692   1.084       .  S
N2689      O2699   1.262       .  A
N2689      O2700   1.262   1_455  A
N2691      O2697   1.262       .  A
N2691      O2698   1.262       .  A
