geometry optimzed in LAMMPS
_audit_creation_date              2020-12-01 
_audit_creation_method            'lammps2cif' 
_symmetry_space_group_name_H-M    'P1' 
_symmetry_Int_Tables_number       1 
_symmetry_cell_setting            triclinic 
loop_ 
_symmetry_equiv_pos_as_xyz 
  x,y,z 
_cell_length_a                    50.81339632 
_cell_length_b                    50.786540449335696 
_cell_length_c                    35.62780672646734 
_cell_angle_alpha                 89.96965140936425 
_cell_angle_beta                  89.99552330471042 
_cell_angle_gamma                 89.9914207855493 
loop_ 
_atom_site_label 
_atom_site_type_symbol 
_atom_site_fract_x 
_atom_site_fract_y 
_atom_site_fract_z 
_atom_site_charge 
O1          O  0.61787618  0.11972079  0.63378960    -0.79500
O2          O  0.53318649  0.10632555  0.75918972    -0.64200
O3          O  0.59525690  0.09986497  0.70028390    -1.10800
C4          C  0.54207883  0.04269012  0.62674385     1.07400
O5          O  0.52413121  0.06361829  0.75856972    -0.77400
O6          O  0.55742861  0.03175085  0.72120887    -0.65000
Ni7        Ni  0.61424163  0.13081254  0.68534803     1.34900
C8          C  0.58125264  0.03116547  0.71074247     0.86100
O9          O  0.58164831  0.12411914  0.76784876    -0.77900
O10         O  0.61361251  0.14482202  0.73573380    -0.88200
C11         C  0.52153972  0.08646543  0.77253584     0.85700
O12         O  0.58471551  0.15181860  0.67104134    -0.66400
O13         O  0.52877304  0.03915109  0.65657223    -0.85700
C14         C  0.56120115  0.15215505  0.68285281     0.86500
C15         C  0.60059105  0.14036218  0.76564372     1.08100
H16         H  0.53609111  0.09428824  0.67755858     0.39900
O17         O  0.54799917  0.08329984  0.69174277    -1.08400
O18         O  0.59131066  0.04745964  0.68772050    -0.65000
Ni19       Ni  0.57914230  0.07877153  0.66216315     1.26300
O20         O  0.55195453  0.13547661  0.70588341    -0.65200
O21         O  0.56194136  0.05791051  0.62445227    -0.77500
C22         C  0.62241343  0.09684012  0.62093042     0.85900
O23         O  0.61076913  0.07657884  0.63339685    -0.64700
Ni24       Ni  0.52818724  0.05290801  0.70679421     1.27400
Ni25       Ni  0.56435767  0.10390532  0.73005495     1.26100
H26         H  0.60748085  0.08915259  0.71438966     0.40500
O27         O  0.46727173  0.90414213  0.27594066    -0.79500
O28         O  0.37932265  0.89298362  0.39984487    -0.64200
O29         O  0.44235762  0.88451032  0.34235554    -1.10800
C30         C  0.39058087  0.82747286  0.26866026     1.07400
O31         O  0.36921279  0.85037503  0.39880460    -0.77400
O32         O  0.40610662  0.81910187  0.36678413    -0.65000
Ni33       Ni  0.46293487  0.91464081  0.32780233     1.34900
C34         C  0.42891941  0.81737157  0.35261167     0.86100
O35         O  0.42858765  0.91012922  0.40969254    -0.77900
O36         O  0.46225798  0.92833818  0.37806161    -0.88200
C37         C  0.36565233  0.87362280  0.41096811     0.85700
O38         O  0.43424032  0.93654320  0.31316361    -0.66400
O39         O  0.37918843  0.82181665  0.29947462    -0.85700
C40         C  0.41039795  0.93756139  0.32353731     0.86500
C41         C  0.44861862  0.92512875  0.40764751     1.08100
H42         H  0.38234950  0.87978245  0.31961308     0.39900
O43         O  0.39464396  0.86899022  0.33347429    -1.08400
O44         O  0.43725242  0.83245981  0.32676271    -0.65000
Ni45       Ni  0.42547549  0.86473382  0.30355224     1.26300
O46         O  0.39994294  0.92128322  0.34618220    -0.65200
O47         O  0.40764471  0.84554678  0.26529676    -0.77500
C48         C  0.46876163  0.88143307  0.26121259     0.85900
O49         O  0.45649293  0.86185453  0.27420789    -0.64700
Ni50       Ni  0.37606197  0.83776623  0.34860138     1.27400
Ni51       Ni  0.41115341  0.88968835  0.37174021     1.26100
H52         H  0.45392414  0.87309400  0.35640830     0.40500
O53         O  0.61073029  0.85551801  0.88044068    -0.79500
O54         O  0.62077008  0.77152818  0.00661221    -0.64200
O55         O  0.62882372  0.83362010  0.94816897    -1.10800
C56         C  0.68766698  0.78062027  0.87744226     1.07400
O57         O  0.66344915  0.76235796  0.00804377    -0.77400
O58         O  0.69633952  0.79573172  0.97254496    -0.65000
Ni59       Ni  0.59838282  0.85266099  0.93144107     1.34900
C60         C  0.69728397  0.81952769  0.96190572     0.86100
O61         O  0.60262203  0.82003838  0.01414068    -0.77900
O62         O  0.58332308  0.85251656  0.98114643    -0.88200
C63         C  0.64029333  0.75992688  0.02099304     0.85700
O64         O  0.57740652  0.82325206  0.91674496    -0.66400
O65         O  0.69060614  0.76724367  0.90737593    -0.85700
C66         C  0.57693802  0.79967447  0.92829791     0.86500
C67         C  0.58675599  0.83927848  0.01115108     1.08100
H68         H  0.63495481  0.77443498  0.92562063     0.39900
O69         O  0.64555167  0.78634132  0.94039340    -1.08400
O70         O  0.68153847  0.82956543  0.93812049    -0.65000
Ni71       Ni  0.65080693  0.81753799  0.91114426     1.26300
O72         O  0.59319508  0.79030434  0.95176415    -0.65200
O73         O  0.67241283  0.80038647  0.87448150    -0.77500
C74         C  0.63388053  0.86112098  0.86973287     0.85900
O75         O  0.65383885  0.84931395  0.88279940    -0.64700
Ni76       Ni  0.67554152  0.76651672  0.95690025     1.27400
Ni77       Ni  0.62396457  0.80270960  0.97761784     1.26100
H78         H  0.63917626  0.84581536  0.96282090     0.40500
O79         O  0.82519993  0.70279417  0.52133316    -0.79500
O80         O  0.83460480  0.62000987  0.65155019    -0.64200
O81         O  0.84444007  0.68062516  0.58956434    -1.10800
C82         C  0.90161664  0.62617652  0.52079601     1.07400
O83         O  0.87698437  0.60883606  0.65151346    -0.77400
O84         O  0.90846597  0.64480134  0.61827854    -0.65000
Ni85       Ni  0.81503141  0.70157513  0.57357852     1.34900
C86         C  0.91077831  0.66696833  0.60230373     0.86100
O87         O  0.81815581  0.66969426  0.65721061    -0.77900
O88         O  0.80200548  0.70375101  0.62404940    -0.88200
C89         C  0.85377199  0.60686252  0.66446317     0.85700
O90         O  0.79184249  0.67322706  0.56218309    -0.66400
O91         O  0.90691702  0.61596480  0.55256206    -0.85700
C92         C  0.79063371  0.64951861  0.57313766     0.86500
C93         C  0.80445923  0.69058411  0.65422202     1.08100
H94         H  0.84848555  0.61978490  0.57114289     0.39900
O95         O  0.85927711  0.63244214  0.58423692    -1.08400
O96         O  0.89639125  0.67438320  0.57511769    -0.65000
Ni97       Ni  0.86415907  0.66222791  0.55225469     1.26300
O98         O  0.80703844  0.63903999  0.59557143    -0.65200
O99         O  0.88343554  0.64290513  0.51564466    -0.77500
C100        C  0.84804452  0.70433361  0.50712041     0.85900
O101        O  0.86752232  0.69230250  0.52090203    -0.64700
Ni102      Ni  0.89020336  0.61423711  0.60130326     1.27400
Ni103      Ni  0.83854703  0.65060471  0.62094240     1.26100
H104        H  0.85601544  0.69237814  0.60304009     0.40500
O105        O  0.02539748  0.06296624  0.77427344    -0.79500
O106        O  0.11004412  0.07501264  0.90369878    -0.64200
O107        O  0.04916374  0.08296229  0.84140980    -1.10800
C108        C  0.10413066  0.13837520  0.77014503     1.07400
O109        O  0.11953547  0.11769466  0.90261443    -0.77400
O110        O  0.08521393  0.14888467  0.86577429    -0.65000
Ni111      Ni  0.02893843  0.05273574  0.82637728     1.34900
C112        C  0.06289117  0.15041185  0.85010631     0.86100
O113        O  0.06054372  0.05860646  0.91040690    -0.77900
O114        O  0.02861418  0.03922714  0.87671434    -0.88200
C115        C  0.12270989  0.09471230  0.91588758     0.85700
O116        O  0.05814589  0.03113237  0.81321398    -0.66400
O117        O  0.11487817  0.14405819  0.80139766    -0.85700
C118        C  0.08144647  0.02974932  0.82577171     0.86500
C119        C  0.04095605  0.04324362  0.90720341     1.08100
H120        H  0.10994652  0.08688538  0.82289914     0.39900
O121        O  0.09727109  0.09796369  0.83551600    -1.08400
O122        O  0.05519525  0.13469282  0.82466295    -0.65000
Ni123      Ni  0.06753815  0.10203482  0.80330540     1.26300
O124        O  0.09108843  0.04583367  0.84944490    -0.65200
O125        O  0.08684520  0.12060338  0.76604591    -0.77500
C126        C  0.02480396  0.08550989  0.75888297     0.85900
O127        O  0.03758747  0.10486170  0.77159942    -0.64700
Ni128      Ni  0.11554990  0.12919969  0.85129795     1.27400
Ni129      Ni  0.07933100  0.07803947  0.87310247     1.26100
H130        H  0.03719624  0.09465383  0.85428375     0.40500
O131        O  0.87285487  0.85075810  0.13137032    -0.79500
O132        O  0.95704794  0.86256487  0.25771732    -0.64200
O133        O  0.89492185  0.86947432  0.19894426    -1.10800
C134        C  0.94761399  0.92767020  0.12694349     1.07400
O135        O  0.96618521  0.90526087  0.25797508    -0.77400
O136        O  0.93265898  0.93774678  0.22149516    -0.65000
Ni137      Ni  0.87660080  0.83852144  0.18240248     1.34900
C138        C  0.90886492  0.93850741  0.21084442     0.86100
O139        O  0.90853935  0.84431891  0.26571609    -0.77900
O140        O  0.87739769  0.82347950  0.23209701    -0.88200
C141        C  0.96905156  0.88219156  0.27110002     0.85700
O142        O  0.90654808  0.81823600  0.16745780    -0.66400
O143        O  0.96106790  0.93096402  0.15667909    -0.85700
C144        C  0.92982838  0.81768285  0.18021148     0.86500
C145        C  0.89002126  0.82765318  0.26241610     1.08100
H146        H  0.95400490  0.87561156  0.17632105     0.39900
O147        O  0.94209166  0.88638777  0.19084776    -1.08400
O148        O  0.89879332  0.92224865  0.18780537    -0.65000
Ni149      Ni  0.91084487  0.89120462  0.16152611     1.26300
O150        O  0.93858341  0.83403301  0.20402472    -0.65200
O151        O  0.92783655  0.91244270  0.12440135    -0.77500
C152        C  0.86717624  0.87386905  0.12042937     0.85900
O153        O  0.87900194  0.89391358  0.13320613    -0.64700
Ni154      Ni  0.96187038  0.91664659  0.20653890     1.27400
Ni155      Ni  0.92583851  0.86522877  0.22865714     1.26100
H156        H  0.88251173  0.87979773  0.21325042     0.40500
O157        O  0.16566920  0.76689154  0.52211029    -0.79500
O158        O  0.15204340  0.84939357  0.65168453    -0.64200
O159        O  0.14590259  0.78770109  0.59088864    -1.10800
C160        C  0.08684501  0.84066393  0.52118742     1.07400
O161        O  0.10874986  0.85502589  0.65337826    -0.77400
O162        O  0.07694116  0.82185640  0.61537374    -0.65000
Ni163      Ni  0.17646632  0.76891470  0.57410039     1.34900
C164        C  0.07689076  0.79872457  0.60208268     0.86100
O165        O  0.17214055  0.80080903  0.65772379    -0.77900
O166        O  0.19016337  0.76779810  0.62432173    -0.88200
C167        C  0.13174372  0.86043187  0.66510025     0.85700
O168        O  0.19742997  0.79880305  0.56176605    -0.66400
O169        O  0.08216697  0.85261126  0.55195232    -0.85700
C170        C  0.19717059  0.82261203  0.57236524     0.86500
C171        C  0.18706432  0.78077471  0.65455457     1.08100
H172        H  0.13806331  0.84756203  0.57131961     0.39900
O173        O  0.12798033  0.83465990  0.58513925    -1.08400
O174        O  0.09342232  0.79053649  0.57804200    -0.65000
Ni175      Ni  0.12443824  0.80440887  0.55394786     1.26300
O176        O  0.18053763  0.83197415  0.59544966    -0.65200
O177        O  0.10347251  0.82217372  0.51761473    -0.77500
C178        C  0.14279898  0.76360465  0.50856758     0.85900
O179        O  0.12264586  0.77393424  0.52316941    -0.64700
Ni180      Ni  0.09683039  0.85235688  0.60201639     1.27400
Ni181      Ni  0.15015576  0.81829929  0.62167506     1.26100
H182        H  0.13538656  0.77524874  0.60482574     0.40500
O183        O  0.37914635  0.61127213  0.88019416    -0.79500
O184        O  0.36821688  0.69521540  0.00677495    -0.64200
O185        O  0.36052957  0.63331671  0.94764386    -1.10800
C186        C  0.30318127  0.68797081  0.87629204     1.07400
O187        O  0.32531629  0.70307201  0.00832640    -0.77400
O188        O  0.29212288  0.67159084  0.96952177    -0.65000
Ni189      Ni  0.39095804  0.61402701  0.93148817     1.34900
C190        C  0.29137585  0.64779629  0.95884315     0.86100
O191        O  0.38655893  0.64662745  0.01421796    -0.77900
O192        O  0.40566602  0.61398867  0.98141388    -0.88200
C193        C  0.34840826  0.70634880  0.02119523     0.85700
O194        O  0.41225404  0.64331656  0.91733903    -0.66400
O195        O  0.30036367  0.70136268  0.90623676    -0.85700
C196        C  0.41280817  0.66688204  0.92890820     0.86500
C197        C  0.40236448  0.62731780  0.01133762     1.08100
H198        H  0.35480495  0.69263034  0.92577736     0.39900
O199        O  0.34404991  0.68066000  0.94020655    -1.08400
O200        O  0.30789385  0.63763833  0.93629852    -0.65000
Ni201      Ni  0.33895203  0.64983657  0.91033182     1.26300
O202        O  0.39636596  0.67642241  0.95201369    -0.65200
O203        O  0.31769194  0.66758216  0.87359174    -0.77500
C204        C  0.35606633  0.60649859  0.86838755     0.85900
O205        O  0.33609559  0.61840711  0.88122688    -0.64700
Ni206      Ni  0.31414762  0.70060273  0.95648135     1.27400
Ni207      Ni  0.36535306  0.66407982  0.97751190     1.26100
H208        H  0.34991411  0.62115333  0.96200817     0.40500
O209        O  0.10953391  0.35505468  0.38269246    -0.79500
O210        O  0.12475149  0.27358194  0.51220958    -0.64200
O211        O  0.13023696  0.33413520  0.44988474    -1.10800
C212        C  0.18665744  0.27986132  0.37742681     1.07400
O213        O  0.16721667  0.26351346  0.51021752    -0.77400
O214        O  0.19830711  0.29694444  0.47133521    -0.65000
Ni215      Ni  0.09894502  0.35240013  0.43454837     1.34900
C216        C  0.19890995  0.32037973  0.45911708     0.86100
O217        O  0.10715483  0.32233166  0.51887204    -0.77900
O218        O  0.08537723  0.35271783  0.48507131    -0.88200
C219        C  0.14455571  0.26154583  0.52496271     0.85700
O220        O  0.07833613  0.32223860  0.42199893    -0.66400
O221        O  0.19086227  0.26734662  0.40776660    -0.85700
C222        C  0.07808688  0.29919855  0.43561438     0.86500
C223        C  0.09047672  0.34084532  0.51571336     1.08100
H224        H  0.13549385  0.27436747  0.43000402     0.39900
O225        O  0.14669404  0.28662182  0.44319531    -1.08400
O226        O  0.18244334  0.32973438  0.43577052    -0.65000
Ni227      Ni  0.15069527  0.31713520  0.41196771     1.26300
O228        O  0.09485124  0.29085967  0.45917123    -0.65200
O229        O  0.17084880  0.29917026  0.37446023    -0.77500
C230        C  0.13229003  0.35995022  0.36976583     0.85900
O231        O  0.15261138  0.34823953  0.38186525    -0.64700
Ni232      Ni  0.17742359  0.26722843  0.45816255     1.27400
Ni233      Ni  0.12676765  0.30399298  0.48140866     1.26100
H234        H  0.14107260  0.34680814  0.46292417     0.40500
O235        O  0.32613135  0.20431980  0.02488042    -0.79500
O236        O  0.33563806  0.11862359  0.15164627    -0.64200
O237        O  0.34484604  0.18077054  0.09245843    -1.10800
C238        C  0.40029330  0.12548545  0.02010779     1.07400
O239        O  0.37846322  0.11039154  0.15200703    -0.77400
O240        O  0.41214610  0.14170620  0.11400576    -0.65000
Ni241      Ni  0.31514575  0.20133799  0.07669108     1.34900
C242        C  0.41333543  0.16514524  0.10189355     0.86100
O243        O  0.31894509  0.16829671  0.15973810    -0.77900
O244        O  0.30131400  0.20179751  0.12689917    -0.88200
C245        C  0.35532324  0.10595571  0.16389986     0.85700
O246        O  0.29297851  0.17267032  0.06290354    -0.66400
O247        O  0.40396829  0.11237842  0.05016724    -0.85700
C248        C  0.29162263  0.14900697  0.07401670     0.86500
C249        C  0.30441632  0.18863039  0.15698411     1.08100
H250        H  0.34871946  0.12096639  0.07087302     0.39900
O251        O  0.35980661  0.13289534  0.08486360    -1.08400
O252        O  0.39691526  0.17491057  0.07892278    -0.65000
Ni253      Ni  0.36506602  0.16341560  0.05465397     1.26300
O254        O  0.30759749  0.13873063  0.09722656    -0.65200
O255        O  0.38491911  0.14512738  0.01745904    -0.77500
C256        C  0.34910224  0.20626341  0.01113272     0.85900
O257        O  0.36860077  0.19428464  0.02497672    -0.64700
Ni258      Ni  0.38990627  0.11288258  0.10046815     1.27400
Ni259      Ni  0.33920564  0.15003739  0.12256232     1.26100
H260        H  0.35612996  0.19248013  0.10650246     0.40500
O261        O  0.52261493  0.56549252  0.27670493    -0.79500
O262        O  0.60908927  0.57559902  0.40216800    -0.64200
O263        O  0.54685892  0.58509733  0.34346823    -1.10800
C264        C  0.60061723  0.64077423  0.27051974     1.07400
O265        O  0.61943025  0.61812613  0.40137495    -0.77400
O266        O  0.58447497  0.65027927  0.36748858    -0.65000
Ni267      Ni  0.52569088  0.55545676  0.32892451     1.34900
C268        C  0.56167405  0.65221938  0.35337411     0.86100
O269        O  0.55956559  0.55948987  0.41108330    -0.77900
O270        O  0.52525370  0.54242803  0.37954125    -0.88200
C271        C  0.62239675  0.59494835  0.41406722     0.85700
O272        O  0.55388209  0.53254099  0.31568483    -0.66400
O273        O  0.61227319  0.64592539  0.30128342    -0.85700
C274        C  0.57772401  0.53123568  0.32593298     0.86500
C275        C  0.53892430  0.54538073  0.40914850     1.08100
H276        H  0.60703252  0.58862132  0.32170031     0.39900
O277        O  0.59487974  0.59968928  0.33533926    -1.08400
O278        O  0.55299181  0.63697445  0.32796058    -0.65000
Ni279      Ni  0.56436304  0.60450819  0.30491937     1.26300
O280        O  0.58852605  0.54756147  0.34814197    -0.65200
O281        O  0.58280885  0.62344361  0.26704888    -0.77500
C282        C  0.52149124  0.58812523  0.26164180     0.85900
O283        O  0.53361615  0.60772316  0.27491760    -0.64700
Ni284      Ni  0.61409893  0.63041512  0.35071480     1.27400
Ni285      Ni  0.57768231  0.57939745  0.37336074     1.26100
H286        H  0.53543224  0.59677273  0.35732037     0.40500
O287        O  0.37061367  0.34998777  0.63118601    -0.79500
O288        O  0.45524653  0.35980327  0.75761340    -0.64200
O289        O  0.39352362  0.36834712  0.69840573    -1.10800
C290        C  0.44740973  0.42611724  0.62743895     1.07400
O291        O  0.46521822  0.40231080  0.75849505    -0.77400
O292        O  0.43201653  0.43522350  0.72225102    -0.65000
Ni293      Ni  0.37397745  0.33800781  0.68237974     1.34900
C294        C  0.40846265  0.43658526  0.71071511     0.86100
O295        O  0.40647438  0.34272772  0.76521830    -0.77900
O296        O  0.37424405  0.32316865  0.73223319    -0.88200
C297        C  0.46709339  0.37920659  0.77191823     0.85700
O298        O  0.40315937  0.31667096  0.66762885    -0.66400
O299        O  0.46055500  0.42909007  0.65753706    -0.85700
C300        C  0.42660530  0.31570742  0.67966930     0.86500
C301        C  0.38729391  0.32683043  0.76230451     1.08100
H302        H  0.45300572  0.37329300  0.67642023     0.39900
O303        O  0.44112970  0.38420804  0.69077111    -1.08400
O304        O  0.39848950  0.42085546  0.68690594    -0.65000
Ni305      Ni  0.41019331  0.38960823  0.66099622     1.26300
O306        O  0.43609622  0.33190441  0.70316448    -0.65200
O307        O  0.42784230  0.41065756  0.62412842    -0.77500
C308        C  0.36639324  0.37318990  0.61932100     0.85900
O309        O  0.37871512  0.39290418  0.63213888    -0.64700
Ni310      Ni  0.46114508  0.41414861  0.70711762     1.27400
Ni311      Ni  0.42424166  0.36327970  0.72826735     1.26100
H312        H  0.38146862  0.37910978  0.71270265     0.40500
O313        O  0.87715411  0.11042459  0.38124817    -0.79500
O314        O  0.86821547  0.19336323  0.51104020    -0.64200
O315        O  0.85943719  0.13319367  0.44880052    -1.10800
C316        C  0.80481211  0.19142538  0.37825558     1.07400
O317        O  0.82581876  0.20357017  0.51113482    -0.77400
O318        O  0.79194925  0.17451653  0.47014885    -0.65000
Ni319      Ni  0.88997955  0.11429203  0.43194666     1.34900
C320        C  0.79053256  0.15075433  0.45949664     0.86100
O321        O  0.88438645  0.14410287  0.51694710    -0.77900
O322        O  0.90599836  0.11484796  0.48121803    -0.88200
C323        C  0.84871459  0.20507699  0.52524490     0.85700
O324        O  0.90997071  0.14418678  0.41633271    -0.66400
O325        O  0.80269588  0.20481713  0.40828659    -0.85700
C326        C  0.91188809  0.16678238  0.43113240     0.86500
C327        C  0.90161335  0.12625656  0.51244862     1.08100
H328        H  0.85627856  0.19290867  0.42904689     0.39900
O329        O  0.84473793  0.18129780  0.44284153    -1.08400
O330        O  0.80703076  0.13992777  0.43755104    -0.65000
Ni331      Ni  0.83858105  0.15113376  0.41191726     1.26300
O332        O  0.89668484  0.17506490  0.45680880    -0.65200
O333        O  0.81808966  0.17020181  0.37548620    -0.77500
C334        C  0.85382857  0.10706067  0.36935545     0.85900
O335        O  0.83451042  0.12015618  0.38198232    -0.64700
Ni336      Ni  0.81559835  0.20253522  0.45884260     1.27400
Ni337      Ni  0.86467426  0.16312417  0.48023771     1.26100
H338        H  0.84854716  0.12079085  0.46226360     0.40500
O339        O  0.66314895  0.26483189  0.02605808    -0.79500
O340        O  0.65309680  0.35165903  0.15096011    -0.64200
O341        O  0.64500071  0.28844013  0.09393533    -1.10800
C342        C  0.58413751  0.33915787  0.02430267     1.07400
O343        O  0.60993493  0.35827325  0.15397028    -0.77400
O344        O  0.57776529  0.32290603  0.12100014    -0.65000
Ni345      Ni  0.67498887  0.26860785  0.07740676     1.34900
C346        C  0.57696587  0.29975913  0.10780765     0.86100
O347        O  0.67254288  0.30307939  0.15912049    -0.77900
O348        O  0.68977045  0.26903790  0.12706857    -0.88200
C349        C  0.63325021  0.36335665  0.16460399     0.85700
O350        O  0.69609909  0.29774700  0.06235285    -0.66400
O351        O  0.57986998  0.35132883  0.05499729    -0.85700
C352        C  0.69661794  0.32176099  0.07196120     0.86500
C353        C  0.68736047  0.28294019  0.15658596     1.08100
H354        H  0.63729892  0.34804791  0.07154261     0.39900
O355        O  0.62745267  0.33545605  0.08627980    -1.08400
O356        O  0.59241498  0.29145163  0.08246379    -0.65000
Ni357      Ni  0.62311869  0.30445944  0.05677333     1.26300
O358        O  0.68043509  0.33211479  0.09488001    -0.65200
O359        O  0.60159479  0.32148638  0.02027334    -0.77500
C360        C  0.63998294  0.26179140  0.01342526     0.85900
O361        O  0.62036392  0.27323193  0.02777820    -0.64700
Ni362      Ni  0.59644998  0.35325490  0.10380705     1.27400
Ni363      Ni  0.65018764  0.31979750  0.12282046     1.26100
H364        H  0.63453162  0.27657136  0.10894449     0.40500
O365        O  0.12022527  0.61720824  0.13157452    -0.79500
O366        O  0.03560310  0.60748878  0.25957348    -0.64200
O367        O  0.09669713  0.59931375  0.19875478    -1.10800
C368        C  0.04064481  0.54301254  0.12806163     1.07400
O369        O  0.02657754  0.56482684  0.26037861    -0.77400
O370        O  0.05723576  0.53146000  0.22095693    -0.65000
Ni371      Ni  0.11549425  0.63000527  0.18214381     1.34900
C372        C  0.08092111  0.53029216  0.20996932     0.86100
O373        O  0.08459296  0.62426397  0.26636541    -0.77900
O374        O  0.11423265  0.64594991  0.23133744    -0.88200
C375        C  0.02419464  0.58782299  0.27391863     0.85700
O376        O  0.08561528  0.64979511  0.16585119    -0.66400
O377        O  0.02734024  0.54037444  0.15810955    -0.85700
C378        C  0.06280300  0.65151869  0.18003718     0.86500
C379        C  0.10253076  0.64140897  0.26228483     1.08100
H380        H  0.03711727  0.59489629  0.17800665     0.39900
O381        O  0.04894214  0.58373440  0.19205325    -1.08400
O382        O  0.09126391  0.54672559  0.18743863    -0.65000
Ni383      Ni  0.07951025  0.57809881  0.16170205     1.26300
O384        O  0.05425689  0.63608859  0.20533671    -0.65200
O385        O  0.06118165  0.55725514  0.12516814    -0.77500
C386        C  0.12366060  0.59389957  0.11960458     0.85900
O387        O  0.11070538  0.57449238  0.13220725    -0.64700
Ni388      Ni  0.02858662  0.55401792  0.20837680     1.27400
Ni389      Ni  0.06630099  0.60424738  0.22945654     1.26100
H390        H  0.10905867  0.58860739  0.21262452     0.40500
O391        O  0.96350566  0.40673985  0.77250774    -0.79500
O392        O  0.87939404  0.39359988  0.90006153    -0.64200
O393        O  0.94186083  0.38711140  0.84085348    -1.10800
C394        C  0.88962477  0.32754774  0.77080867     1.07400
O395        O  0.87479746  0.35028205  0.90232063    -0.77400
O396        O  0.90760398  0.31791336  0.86460601    -0.65000
Ni397      Ni  0.96104324  0.41753892  0.82447226     1.34900
C398        C  0.93077556  0.31777841  0.85146763     0.86100
O399        O  0.92809629  0.41354913  0.90737090    -0.77900
O400        O  0.96169684  0.43121201  0.87472825    -0.88200
C401        C  0.86817172  0.37320575  0.91291840     0.85700
O402        O  0.93155589  0.43897549  0.81182098    -0.66400
O403        O  0.87723059  0.32331465  0.80133148    -0.85700
C404        C  0.90772469  0.43903570  0.82230833     0.86500
C405        C  0.94825671  0.42835045  0.90461037     1.08100
H406        H  0.88222721  0.37932336  0.82012439     0.39900
O407        O  0.89500694  0.36926053  0.83420186    -1.08400
O408        O  0.93918922  0.33454702  0.82791797    -0.65000
Ni409      Ni  0.92548593  0.36556511  0.80361749     1.26300
O410        O  0.89789908  0.42211905  0.84459520    -0.65200
O411        O  0.90805367  0.34428232  0.76718033    -0.77500
C412        C  0.96671970  0.38383429  0.75898605     0.85900
O413        O  0.95618404  0.36371755  0.77340423    -0.64700
Ni414      Ni  0.87730509  0.33812636  0.85117978     1.27400
Ni415      Ni  0.91096797  0.39154221  0.87098358     1.26100
H416        H  0.95408534  0.37654458  0.85511909     0.40500
C417        C  0.00834709  0.50085533  0.04255722     0.18400
C418        C  0.99742704  0.51306074  0.01090080    -0.10700
C419        C  0.98352375  0.49814192  0.98449894    -0.11500
C420        C  0.98038849  0.47095551  0.98968169     0.20000
C421        C  0.99139879  0.45873865  0.02126230    -0.13600
C422        C  0.00530112  0.47365437  0.04765904    -0.11900
C423        C  0.96674302  0.45549871  0.96191101     0.01000
C424        C  0.95693646  0.44276382  0.93698427    -0.31900
C425        C  0.02173810  0.51632130  0.07056225     0.02300
C426        C  0.03150116  0.52890736  0.09567385    -0.33500
H427        H  0.99954313  0.53408796  0.00673985     0.13400
H428        H  0.97525683  0.50778142  0.96005914     0.13200
H429        H  0.98926502  0.43771540  0.02544372     0.13100
H430        H  0.01354866  0.46401533  0.07211303     0.12100
C431        C  0.80481553  0.37063164  0.98216047     0.18400
C432        C  0.78019686  0.37186391  0.96447372    -0.10700
C433        C  0.75732387  0.36539775  0.98433412    -0.11500
C434        C  0.75891082  0.35766065  0.02202800     0.20000
C435        C  0.78347219  0.35695232  0.03994696    -0.13600
C436        C  0.80636080  0.36341341  0.02007026    -0.11900
C437        C  0.73574877  0.34826749  0.04124915     0.01000
C438        C  0.71713606  0.33775959  0.05608426    -0.31900
C439        C  0.82847415  0.37465870  0.96052324     0.02300
C440        C  0.84745535  0.37558327  0.94017328    -0.33500
H441        H  0.77875458  0.37714619  0.93507672     0.13400
H442        H  0.73851049  0.36574769  0.97003252     0.13200
H443        H  0.78500219  0.35072420  0.06895343     0.13100
H444        H  0.82528181  0.36211424  0.03396139     0.12100
C445        C  0.87201380  0.28168310  0.68053040     0.18400
C446        C  0.85447893  0.29004780  0.65264776    -0.10700
C447        C  0.84921695  0.27384688  0.62185541    -0.11500
C448        C  0.86145969  0.24922744  0.61884154     0.20000
C449        C  0.87897153  0.24082253  0.64675975    -0.13600
C450        C  0.88423395  0.25703158  0.67757274    -0.11900
C451        C  0.85642963  0.23292147  0.58668284     0.01000
C452        C  0.85254170  0.21993118  0.55896512    -0.31900
C453        C  0.87758028  0.29841346  0.71206282     0.02300
C454        C  0.88269575  0.31207870  0.73869561    -0.33500
H455        H  0.84495631  0.30908276  0.65466261     0.13400
H456        H  0.83571453  0.28054801  0.60034043     0.13200
H457        H  0.88860991  0.22184983  0.64461986     0.13100
H458        H  0.89785262  0.25040251  0.69898809     0.12100
C459        C  0.73117968  0.25222452  0.24155039     0.18400
C460        C  0.73035684  0.22467995  0.24386863    -0.10700
C461        C  0.74609251  0.21136093  0.26991535    -0.11500
C462        C  0.76281286  0.22549015  0.29379195     0.20000
C463        C  0.76359533  0.25306681  0.29158236    -0.13600
C464        C  0.74784315  0.26640412  0.26549214    -0.11900
C465        C  0.77861648  0.21178697  0.32119801     0.01000
C466        C  0.79114130  0.20132077  0.34585357    -0.31900
C467        C  0.71537561  0.26562553  0.21387575     0.02300
C468        C  0.70230582  0.27488829  0.18884373    -0.33500
H469        H  0.71760981  0.21349279  0.22544167     0.13400
H470        H  0.74519913  0.19007553  0.27145950     0.13200
H471        H  0.77634638  0.26423369  0.31002724     0.13100
H472        H  0.74871792  0.28769077  0.26391342     0.12100
C473        C  0.53977425  0.35563430  0.93168144     0.18400
C474        C  0.55185104  0.35491876  0.89633190    -0.10700
C475        C  0.53713689  0.36002621  0.86394547    -0.11500
C476        C  0.51025675  0.36587453  0.86672171     0.20000
C477        C  0.49814649  0.36650999  0.90206344    -0.13600
C478        C  0.51286951  0.36140178  0.93446897    -0.11900
C479        C  0.49511633  0.37106053  0.83332571     0.01000
C480        C  0.48241342  0.37506449  0.80528192    -0.31900
C481        C  0.55501291  0.35036132  0.96495763     0.02300
C482        C  0.56815721  0.34559036  0.99233622    -0.33500
H483        H  0.57262164  0.35042790  0.89381855     0.13400
H484        H  0.54670347  0.35941684  0.83678164     0.13200
H485        H  0.47736360  0.37094752  0.90455409     0.13100
H486        H  0.50330205  0.36195793  0.96163402     0.12100
C487        C  0.61489565  0.46874977  0.27811392     0.18400
C488        C  0.61449896  0.44384985  0.29512769    -0.10700
C489        C  0.62244227  0.42158347  0.27489590    -0.11500
C490        C  0.63084332  0.42414492  0.23759024     0.20000
C491        C  0.63183902  0.44913283  0.22094907    -0.13600
C492        C  0.62389670  0.47135748  0.24113841    -0.11900
C493        C  0.63572932  0.40112583  0.21500445     0.01000
C494        C  0.63662252  0.38292796  0.19328040    -0.31900
C495        C  0.60414874  0.49127358  0.29732499     0.02300
C496        C  0.59317808  0.50987614  0.31141352    -0.33500
H497        H  0.60734506  0.44155558  0.32358950     0.13400
H498        H  0.62125347  0.40233774  0.28791512     0.13200
H499        H  0.63796479  0.45133126  0.19198578     0.13100
H500        H  0.62406271  0.49045457  0.22756800     0.12100
C501        C  0.50676569  0.50315469  0.49437390     0.18400
C502        C  0.51214153  0.47614589  0.49662530    -0.10700
C503        C  0.49811892  0.46026558  0.52168520    -0.11500
C504        C  0.47857562  0.47127789  0.54453840     0.20000
C505        C  0.47321201  0.49831292  0.54237576    -0.13600
C506        C  0.48724417  0.51421095  0.51727245    -0.11900
C507        C  0.46499271  0.45498485  0.57134351     0.01000
C508        C  0.45559546  0.44135625  0.59560651    -0.31900
C509        C  0.52030988  0.51916106  0.46717826     0.02300
C510        C  0.53009352  0.53174229  0.44208921    -0.33500
H511        H  0.52705125  0.46734919  0.47887055     0.13400
H512        H  0.50256029  0.43943036  0.52332237     0.13200
H513        H  0.45827521  0.50708175  0.56011356     0.13100
H514        H  0.48278965  0.53504102  0.51556748     0.12100
C515        C  0.47468113  0.21382617  0.12679758     0.18400
C516        C  0.50043927  0.20424754  0.13041979    -0.10700
C517        C  0.52166038  0.22180691  0.13214818    -0.11500
C518        C  0.51722230  0.24902543  0.13028114     0.20000
C519        C  0.49141676  0.25858794  0.12767173    -0.13600
C520        C  0.47022180  0.24104994  0.12594291    -0.11900
C521        C  0.53908260  0.26701374  0.12742190     0.01000
C522        C  0.55682364  0.28213112  0.12083792    -0.31900
C523        C  0.45301803  0.19588541  0.12131349     0.02300
C524        C  0.43480207  0.18151968  0.11395723    -0.33500
H525        H  0.50416720  0.18324555  0.13087055     0.13400
H526        H  0.54153199  0.21415720  0.13379800     0.13200
H527        H  0.48773778  0.27956358  0.12583814     0.13100
H528        H  0.45043075  0.24870100  0.12290902     0.12100
C529        C  0.36965394  0.28262964  0.85439585     0.18400
C530        C  0.36953416  0.29401574  0.89019567    -0.10700
C531        C  0.36495623  0.27838971  0.92184816    -0.11500
C532        C  0.36049588  0.25131640  0.91782127     0.20000
C533        C  0.36048500  0.23994375  0.88200293    -0.13600
C534        C  0.36506265  0.25557483  0.85034073    -0.11900
C535        C  0.35622880  0.23520739  0.95046614     0.01000
C536        C  0.35289375  0.22188203  0.97805024    -0.31900
C537        C  0.37502676  0.29859457  0.82194312     0.02300
C538        C  0.38020062  0.31174278  0.79476877    -0.33500
H539        H  0.37312832  0.31490307  0.89363925     0.13400
H540        H  0.36502914  0.28737041  0.94942576     0.13200
H541        H  0.35708132  0.21902171  0.87858952     0.13100
H542        H  0.36517871  0.24656620  0.82278101     0.12100
C543        C  0.01669814  0.25006411  0.41349066     0.18400
C544        C  0.02027929  0.22327381  0.40554936    -0.10700
C545        C  0.99856333  0.20633656  0.40424200    -0.11500
C546        C  0.97318950  0.21612864  0.41085436     0.20000
C547        C  0.96957689  0.24302121  0.41792868    -0.13600
C548        C  0.99126671  0.25993888  0.41923121    -0.11900
C549        C  0.95116646  0.19837755  0.41350540     0.01000
C550        C  0.93293888  0.18374601  0.41944201    -0.31900
C551        C  0.03908673  0.26714203  0.41815251     0.02300
C552        C  0.05726043  0.28170660  0.42471854    -0.33500
H553        H  0.03986349  0.21538533  0.40128949     0.13400
H554        H  0.00161951  0.18553957  0.39906990     0.13200
H555        H  0.95008737  0.25077753  0.42340848     0.13100
H556        H  0.98827197  0.28057954  0.42561655     0.12100
C557        C  0.30656108  0.37296648  0.54436029     0.18400
C558        C  0.28151769  0.37962624  0.55784559    -0.10700
C559        C  0.25904268  0.37261093  0.53750662    -0.11500
C560        C  0.26149859  0.35889937  0.50357901     0.20000
C561        C  0.28656907  0.35305559  0.48943009    -0.13600
C562        C  0.30905232  0.36006591  0.50978254    -0.11900
C563        C  0.23845387  0.34839925  0.48545106     0.01000
C564        C  0.21977136  0.33697974  0.47239619    -0.31900
C565        C  0.32927927  0.37659428  0.56797007     0.02300
C566        C  0.34717678  0.37668908  0.59021001    -0.33500
H567        H  0.27932720  0.38931699  0.58475008     0.13400
H568        H  0.23976812  0.37698928  0.54891628     0.13200
H569        H  0.28870592  0.34221521  0.46342260     0.13100
H570        H  0.32828427  0.35453303  0.49928364     0.12100
C571        C  0.23018817  0.24844566  0.29300035     0.18400
C572        C  0.21866626  0.23590366  0.26210181    -0.10700
C573        C  0.23438448  0.22219040  0.23649430    -0.11500
C574        C  0.26168887  0.22086924  0.24171857     0.20000
C575        C  0.27322887  0.23340148  0.27263732    -0.13600
C576        C  0.25749943  0.24711954  0.29826503    -0.11900
C577        C  0.27781875  0.20752563  0.21448546     0.01000
C578        C  0.29051402  0.19771867  0.18954450    -0.31900
C579        C  0.21393752  0.26170886  0.32015238     0.02300
C580        C  0.20086099  0.27124258  0.34489549    -0.33500
H581        H  0.19756375  0.23664955  0.25788870     0.13400
H582        H  0.22527138  0.21269702  0.21257183     0.13200
H583        H  0.29433130  0.23263817  0.27684958     0.13100
H584        H  0.26659798  0.25660227  0.32220975     0.12100
C585        C  0.04633183  0.36096107  0.60665212     0.18400
C586        C  0.02491745  0.37805497  0.60200000    -0.10700
C587        C  0.00828205  0.38351422  0.63230350    -0.11500
C588        C  0.01303037  0.37187863  0.66731969     0.20000
C589        C  0.03450210  0.35488610  0.67196566    -0.13600
C590        C  0.05111684  0.34943436  0.64170068    -0.11900
C591        C  0.99592049  0.37714260  0.69856237     0.01000
C592        C  0.98225661  0.38067683  0.72572765    -0.31900
C593        C  0.06290556  0.35459469  0.57524353     0.02300
C594        C  0.07606276  0.34857271  0.54846561    -0.33500
H595        H  0.02099200  0.38698327  0.57494612     0.13400
H596        H  0.99171638  0.39666902  0.62841303     0.13200
H597        H  0.03832279  0.34577751  0.69892797     0.13100
H598        H  0.06755153  0.33610919  0.64554728     0.12100
C599        C  0.12937180  0.41984494  0.29452199     0.18400
C600        C  0.11145902  0.41852036  0.26467352    -0.10700
C601        C  0.10491248  0.44129244  0.24459570    -0.11500
C602        C  0.11620543  0.46554611  0.25426237     0.20000
C603        C  0.13469053  0.46674156  0.28340433    -0.13600
C604        C  0.14124876  0.44395406  0.30348378    -0.11900
C605        C  0.10694609  0.48938401  0.23663267     0.01000
C606        C  0.09655777  0.50873084  0.22362938    -0.33500
C607        C  0.13353113  0.39716240  0.31817292     0.02300
C608        C  0.13453082  0.37924278  0.34041312    -0.33500
H609        H  0.10192480  0.40007717  0.25771376     0.13400
H610        H  0.09041074  0.44014097  0.22236232     0.13200
H611        H  0.14337193  0.48539736  0.29138913     0.13100
H612        H  0.15491066  0.44529876  0.32674747     0.12100
C613        C  0.18293507  0.59510986  0.04383749     0.18400
C614        C  0.20729735  0.58329386  0.05152339    -0.10700
C615        C  0.22975943  0.59084351  0.03139447    -0.11500
C616        C  0.22796283  0.61026651  0.00353032     0.20000
C617        C  0.20344215  0.62140687  0.99502352    -0.13600
C618        C  0.18102044  0.61386781  0.01511155    -0.11900
C619        C  0.25140233  0.62057559  0.98603416     0.01000
C620        C  0.27027956  0.63171757  0.97292110    -0.31900
C621        C  0.16065610  0.59044209  0.06803949     0.02300
C622        C  0.14284004  0.59001410  0.09046408    -0.33500
H623        H  0.20911329  0.56900004  0.07395684     0.13400
H624        H  0.24863070  0.58223420  0.03844991     0.13200
H625        H  0.20181554  0.63658839  0.97377064     0.13100
H626        H  0.16238911  0.62337953  0.00918629     0.12100
C627        C  0.47882761  0.59964452  0.16599609     0.18400
C628        C  0.46521041  0.57906078  0.14841464    -0.10700
C629        C  0.44972234  0.58412682  0.11672359    -0.11500
C630        C  0.44777921  0.60979440  0.10250455     0.20000
C631        C  0.46162769  0.63030224  0.11986593    -0.13600
C632        C  0.47710269  0.62524070  0.15151874    -0.11900
C633        C  0.43138771  0.61522418  0.07042192     0.01000
C634        C  0.41782384  0.62038767  0.04361176    -0.31900
C635        C  0.49409287  0.59473987  0.19933749     0.02300
C636        C  0.50663988  0.59141556  0.22768672    -0.33500
H637        H  0.46638634  0.55919095  0.15936986     0.13400
H638        H  0.43912833  0.56810984  0.10350805     0.13200
H639        H  0.46030340  0.65021709  0.10911006     0.13100
H640        H  0.48753193  0.64130704  0.16488547     0.12100
C641        C  0.35801900  0.54627641  0.79423613     0.18400
C642        C  0.37563235  0.54764098  0.76404522    -0.10700
C643        C  0.38258103  0.52477334  0.74457884    -0.11500
C644        C  0.37199296  0.50041179  0.75523063     0.20000
C645        C  0.35378797  0.49913792  0.78471351    -0.13600
C646        C  0.34682131  0.52203078  0.80418681    -0.11900
C647        C  0.38170285  0.47664851  0.73811670     0.01000
C648        C  0.39252055  0.45760854  0.72506200    -0.31900
C649        C  0.35374596  0.56908951  0.81743026     0.02300
C650        C  0.35305550  0.58712945  0.83940369    -0.33500
H651        H  0.38466729  0.56620579  0.75638801     0.13400
H652        H  0.39686310  0.52595794  0.72205448     0.13200
H653        H  0.34566696  0.48038187  0.79342320     0.13100
H654        H  0.33343238  0.52068631  0.82777695     0.12100
C655        C  0.12163866  0.68663438  0.35279092     0.18400
C656        C  0.12749772  0.67518143  0.38758163    -0.10700
C657        C  0.13278958  0.69114086  0.41865447    -0.11500
C658        C  0.13223951  0.71861280  0.41506573     0.20000
C659        C  0.12661278  0.73006781  0.38019678    -0.13600
C660        C  0.12132443  0.71410650  0.34911955    -0.11900
C661        C  0.13671681  0.73497454  0.44739304     0.01000
C662        C  0.13978912  0.74829014  0.47504020    -0.31900
C663        C  0.11546496  0.67025863  0.32104737     0.02300
C664        C  0.10980792  0.65685403  0.29432992    -0.33500
H665        H  0.12776076  0.65396416  0.39074399     0.13400
H666        H  0.13705816  0.68208376  0.44551434     0.13200
H667        H  0.12607328  0.75128709  0.37713177     0.13100
H668        H  0.11678334  0.72316357  0.32235112     0.12100
C669        C  0.26069642  0.72038675  0.79117435     0.18400
C670        C  0.27105946  0.74226579  0.77226229    -0.10700
C671        C  0.25559340  0.75607934  0.74638567    -0.11500
C672        C  0.22964235  0.74815277  0.73937708     0.20000
C673        C  0.21927416  0.72627502  0.75828339    -0.13600
C674        C  0.23474096  0.71246057  0.78416268    -0.11900
C675        C  0.21401294  0.76177993  0.71175747     0.01000
C676        C  0.20133562  0.77171832  0.68685996    -0.31900
C677        C  0.27633301  0.70678599  0.81883398     0.02300
C678        C  0.28900778  0.69691824  0.84380710    -0.33500
H679        H  0.29104162  0.74868664  0.77760984     0.13400
H680        H  0.26387987  0.77286079  0.73178573     0.13200
H681        H  0.19928845  0.71986116  0.75293852     0.13100
H682        H  0.22645081  0.69568418  0.79876863     0.12100
C683        C  0.01403105  0.71334725  0.15832565     0.18400
C684        C  0.02409171  0.73905331  0.15736689    -0.10700
C685        C  0.00695141  0.76066610  0.15752034    -0.11500
C686        C  0.97965186  0.75669639  0.15862216     0.20000
C687        C  0.96961218  0.73099425  0.15883044    -0.13600
C688        C  0.98673557  0.70940280  0.15867851    -0.11900
C689        C  0.96200380  0.77882596  0.16219127     0.01000
C690        C  0.94714802  0.79688191  0.16837799    -0.31900
C691        C  0.03158013  0.69112901  0.16182932     0.02300
C692        C  0.04594822  0.67269524  0.16813384    -0.33500
H693        H  0.04515080  0.74238933  0.15742331     0.13400
H694        H  0.01498109  0.78042746  0.15766397     0.13200
H695        H  0.94857107  0.72764852  0.15999206     0.13100
H696        H  0.97870304  0.68965752  0.15975507     0.12100
C697        C  0.85505902  0.04685812  0.29518457     0.18400
C698        C  0.87089762  0.04903387  0.26312307    -0.10700
C699        C  0.87867552  0.02642180  0.24359807    -0.11500
C700        C  0.87070501  0.00146848  0.25602616     0.20000
C701        C  0.85415754  0.99933735  0.28736167    -0.13600
C702        C  0.84636997  0.02196546  0.30689547    -0.11900
C703        C  0.88141700  0.97814513  0.23865658     0.01000
C704        C  0.89270321  0.95938586  0.22542015    -0.31900
C705        C  0.85040993  0.06965873  0.31842049     0.02300
C706        C  0.84988367  0.08776823  0.34037228    -0.33500
H707        H  0.87802601  0.06810463  0.25403418     0.13400
H708        H  0.89163743  0.02833743  0.21960304     0.13200
H709        H  0.84802891  0.98016613  0.29744452     0.13100
H710        H  0.83439674  0.01996926  0.33189755     0.12100
C711        C  0.04522859  0.85970848  0.42731499     0.18400
C712        C  0.01883119  0.86724629  0.43067293    -0.10700
C713        C  0.00386915  0.87226687  0.39856415    -0.11500
C714        C  0.01522822  0.86977699  0.36293296     0.20000
C715        C  0.04167933  0.86231418  0.35950943    -0.13600
C716        C  0.05666735  0.85728127  0.39167675    -0.11900
C717        C  0.99953699  0.87458000  0.33004821     0.01000
C718        C  0.98574897  0.87832789  0.30305644    -0.31900
C719        C  0.06027659  0.85390274  0.46047076     0.02300
C720        C  0.07239290  0.84835464  0.48843932    -0.33500
H721        H  0.00978605  0.86908787  0.45808513     0.13400
H722        H  0.98342633  0.87796861  0.40150599     0.13200
H723        H  0.05063844  0.86027657  0.33206580     0.13100
H724        H  0.07705566  0.85136831  0.38877671     0.12100
C725        C  0.97949912  0.25562615  0.87144669     0.18400
C726        C  0.96965197  0.23057136  0.86279202    -0.10700
C727        C  0.98647748  0.20875853  0.86232507    -0.11500
C728        C  0.01327182  0.21183963  0.87051711     0.20000
C729        C  0.02302408  0.23678322  0.88004527    -0.13600
C730        C  0.00618022  0.25862125  0.88050910    -0.11900
C731        C  0.03094035  0.18977299  0.86668301     0.01000
C732        C  0.04558383  0.17153028  0.86067384    -0.31900
C733        C  0.96260164  0.27836372  0.86834883     0.02300
C734        C  0.94822092  0.29685952  0.86251464    -0.33500
H735        H  0.94911271  0.22800878  0.85549489     0.13400
H736        H  0.97872439  0.18962178  0.85470028     0.13200
H737        H  0.04372901  0.23945532  0.88621603     0.13100
H738        H  0.01407731  0.27790038  0.88700509     0.12100
C739        C  0.98039262  0.09765975  0.66478484     0.18400
C740        C  0.96226408  0.07875066  0.65242118    -0.10700
C741        C  0.94628822  0.08389481  0.62122916    -0.11500
C742        C  0.94832803  0.10798745  0.60222588     0.20000
C743        C  0.96662468  0.12679748  0.61440285    -0.13600
C744        C  0.98259464  0.12165496  0.64557967    -0.11900
C745        C  0.93145530  0.11360382  0.57061726     0.01000
C746        C  0.91751455  0.11894107  0.54421131    -0.31900
C747        C  0.99636156  0.09269803  0.69752688     0.02300
C748        C  0.00948114  0.08908528  0.72532625    -0.33500
H749        H  0.96035194  0.06013568  0.66703323     0.13400
H750        H  0.93223686  0.06918830  0.61211158     0.13200
H751        H  0.96840834  0.14549621  0.59997245     0.13100
H752        H  0.99650995  0.13644541  0.65485950     0.12100
C753        C  0.11757172  0.96551578  0.78171014     0.18400
C754        C  0.10736305  0.94103353  0.79260124    -0.10700
C755        C  0.11371961  0.91831799  0.77231250    -0.11500
C756        C  0.13034901  0.91993770  0.74101654     0.20000
C757        C  0.14126515  0.94428079  0.73087962    -0.13600
C758        C  0.13489204  0.96701325  0.75116737    -0.11900
C759        C  0.13391476  0.89732494  0.71707793     0.01000
C760        C  0.13437225  0.87954824  0.69459875    -0.31900
C761        C  0.10815307  0.98921318  0.79948826     0.02300
C762        C  0.09747462  0.00837838  0.81251061    -0.33500
H763        H  0.09375393  0.93964962  0.81593307     0.13400
H764        H  0.10492864  0.89968613  0.78020686     0.13200
H765        H  0.15392237  0.94584498  0.70650778     0.13100
H766        H  0.14271347  0.98584571  0.74223677     0.12100
C767        C  0.97887363  0.97073589  0.04232548     0.18400
C768        C  0.98413873  0.99725858  0.05009231    -0.10700
C769        C  0.99851774  0.01241705  0.02457289    -0.11500
C770        C  0.00774697  0.00105613  0.99128669     0.20000
C771        C  0.00242949  0.97454629  0.98347355    -0.13600
C772        C  0.98805063  0.95938579  0.00899685    -0.11900
C773        C  0.02172643  0.01677968  0.96437173     0.01000
C774        C  0.03178596  0.02941901  0.93965731    -0.31900
C775        C  0.96526135  0.95492576  0.06951212     0.02300
C776        C  0.95578034  0.94207412  0.09446391    -0.33500
H777        H  0.97727475  0.00614777  0.07594267     0.13400
H778        H  0.00238793  0.03294281  0.03073494     0.13200
H779        H  0.00935047  0.96564068  0.95766478     0.13100
H780        H  0.98423732  0.93884156  0.00288125     0.12100
C781        C  0.13233037  0.21538003  0.61684135     0.18400
C782        C  0.11784845  0.19211556  0.61236636    -0.10700
C783        C  0.11265500  0.17606107  0.64337525    -0.11500
C784        C  0.12194521  0.18321682  0.67894715     0.20000
C785        C  0.13630808  0.20654029  0.68346449    -0.13600
C786        C  0.14150092  0.22259692  0.65245396    -0.11900
C787        C  0.11652406  0.16679154  0.71085814     0.01000
C788        C  0.11141991  0.15344253  0.73782231    -0.31900
C789        C  0.13757208  0.23189917  0.58492828     0.02300
C790        C  0.14130243  0.24557489  0.55780801    -0.33500
H791        H  0.11058897  0.18641130  0.58495763     0.13400
H792        H  0.10143217  0.15811351  0.63963279     0.13200
H793        H  0.14347783  0.21228801  0.71090254     0.13100
H794        H  0.15263468  0.24059304  0.65622551     0.12100
C795        C  0.18255368  0.09672357  0.99035067     0.18400
C796        C  0.18065216  0.11071280  0.02413403    -0.10700
C797        C  0.20347370  0.11816648  0.04337612    -0.11500
C798        C  0.22830566  0.11172456  0.02890177     0.20000
C799        C  0.23019192  0.09710084  0.99567745    -0.13600
C800        C  0.20737337  0.08962657  0.97645698    -0.11900
C801        C  0.25167264  0.12213279  0.04632591     0.01000
C802        C  0.27048874  0.13320022  0.05963256    -0.31900
C803        C  0.15944765  0.09228851  0.96777896     0.02300
C804        C  0.14147072  0.09152881  0.94568314    -0.33500
H805        H  0.16160953  0.11662462  0.03490811     0.13400
H806        H  0.20177836  0.12968486  0.06885177     0.13200
H807        H  0.24927035  0.09222116  0.98401480     0.13100
H808        H  0.20910936  0.07911984  0.95011308     0.12100
C809        C  0.97181969  0.71606868  0.62564868     0.18400
C810        C  0.99724592  0.70549415  0.62805387    -0.10700
C811        C  0.01917778  0.72216166  0.62784037    -0.11500
C812        C  0.01578187  0.74948571  0.62522281     0.20000
C813        C  0.99032512  0.76008773  0.62395393    -0.13600
C814        C  0.96840033  0.74342461  0.62415295    -0.11900
C815        C  0.03826936  0.76648944  0.62073566     0.01000
C816        C  0.05642415  0.78102134  0.61380722    -0.31900
C817        C  0.94949509  0.69884984  0.62143491     0.02300
C818        C  0.93136390  0.68432466  0.61447488    -0.33500
H819        H  0.00013858  0.68436572  0.62893249     0.13400
H820        H  0.03875261  0.71371957  0.62857447     0.13200
H821        H  0.98745201  0.78116692  0.62166554     0.13100
H822        H  0.94885546  0.75182121  0.62199417     0.12100
C823        C  0.68259298  0.59644540  0.48768538     0.18400
C824        C  0.70767518  0.59189157  0.47267282    -0.10700
C825        C  0.73011013  0.59978949  0.49241069    -0.11500
C826        C  0.72757933  0.61229144  0.52726419     0.20000
C827        C  0.70252230  0.61626963  0.54271627    -0.13600
C828        C  0.68007118  0.60837575  0.52295642    -0.11900
C829        C  0.75047500  0.62291437  0.54562580     0.01000
C830        C  0.76924806  0.63387507  0.55920589    -0.31900
C831        C  0.65964708  0.59173606  0.46498364     0.02300
C832        C  0.64155712  0.59115683  0.44311489    -0.33500
H833        H  0.70985395  0.58304530  0.44517883     0.13400
H834        H  0.74935862  0.59685092  0.48001514     0.13200
H835        H  0.70031635  0.62615701  0.56947129     0.13100
H836        H  0.66077563  0.61235704  0.53458642     0.12100
C837        C  0.86039595  0.74963404  0.41437649     0.18400
C838        C  0.86744018  0.73839511  0.37990882    -0.10700
C839        C  0.87295416  0.75454721  0.34909428    -0.11500
C840        C  0.87144981  0.78198541  0.35266090     0.20000
C841        C  0.86424332  0.79320677  0.38705862    -0.13600
C842        C  0.85872909  0.77706053  0.41786067    -0.11900
C843        C  0.87762957  0.79860757  0.32119376     0.01000
C844        C  0.88312961  0.81223311  0.29463984    -0.31900
C845        C  0.85542366  0.73311766  0.44638958     0.02300
C846        C  0.85178163  0.71969667  0.47379402    -0.33500
H847        H  0.86883742  0.71720946  0.37694567     0.13400
H848        H  0.87853342  0.74567546  0.32261159     0.13200
H849        H  0.86304589  0.81439762  0.39011078     0.13100
H850        H  0.85334933  0.78594509  0.44441699     0.12100
C851        C  0.97969841  0.59903940  0.36788363     0.18400
C852        C  0.98487064  0.62048356  0.39147108    -0.10700
C853        C  0.96902290  0.62504419  0.42289341    -0.11500
C854        C  0.94791827  0.60819319  0.43088455     0.20000
C855        C  0.94286282  0.58661442  0.40747284    -0.13600
C856        C  0.95872415  0.58204929  0.37602786    -0.11900
C857        C  0.93122603  0.61343798  0.46266832     0.01000
C858        C  0.91747947  0.61877829  0.48918720    -0.31900
C859        C  0.99564290  0.59474970  0.33505036     0.02300
C860        C  0.00880153  0.59147190  0.30727721    -0.33500
H861        H  0.00101844  0.63375669  0.38543246     0.13400
H862        H  0.97309308  0.64180381  0.44077904     0.13200
H863        H  0.92658138  0.57347365  0.41335652     0.13100
H864        H  0.95453697  0.56541711  0.35795868     0.12100
C865        C  0.86970169  0.50284227  0.77976278     0.18400
C866        C  0.88040997  0.52725589  0.78995106    -0.10700
C867        C  0.87283913  0.55015628  0.77094363    -0.11500
C868        C  0.85447018  0.54878782  0.74166885     0.20000
C869        C  0.84304614  0.52452104  0.73240319    -0.13600
C870        C  0.85063589  0.50160461  0.75140159    -0.11900
C871        C  0.85007158  0.57139707  0.71801324     0.01000
C872        C  0.84971212  0.58881081  0.69495940    -0.31900
C873        C  0.88006544  0.47901268  0.79610269     0.02300
C874        C  0.89128405  0.45995076  0.80853869    -0.33500
H875        H  0.89531636  0.52844950  0.81162952     0.13400
H876        H  0.88209239  0.56871796  0.77803989     0.13200
H877        H  0.82910052  0.52314700  0.70948718     0.13100
H878        H  0.84236247  0.48284134  0.74306124     0.12100
C879        C  0.47374439  0.71562997  0.90430112     0.18400
C880        C  0.49946208  0.70573483  0.90256934    -0.10700
C881        C  0.52087291  0.72304282  0.90227789    -0.11500
C882        C  0.51661888  0.75028639  0.90371416     0.20000
C883        C  0.49088842  0.76016986  0.90443428    -0.13600
C884        C  0.46949625  0.74287670  0.90472438    -0.11900
C885        C  0.53851108  0.76797165  0.90791652     0.01000
C886        C  0.55638410  0.78268328  0.91522634    -0.31900
C887        C  0.45187180  0.69796398  0.90890296     0.02300
C888        C  0.43372079  0.68359516  0.91623617    -0.33500
H889        H  0.50297077  0.68469083  0.90257657     0.13400
H890        H  0.54070019  0.71519069  0.90208835     0.13200
H891        H  0.48738950  0.78118867  0.90591981     0.13100
H892        H  0.44970178  0.75072218  0.90640654     0.12100
C893        C  0.61873033  0.68468111  0.17840192     0.18400
C894        C  0.61298216  0.71165912  0.17880024    -0.10700
C895        C  0.61778037  0.72701226  0.14695474    -0.11500
C896        C  0.62834032  0.71543250  0.11461297     0.20000
C897        C  0.63427317  0.68849465  0.11430459    -0.13600
C898        C  0.62947207  0.67313778  0.14615532    -0.11900
C899        C  0.63278129  0.73111476  0.08163258     0.01000
C900        C  0.63628611  0.74425310  0.05393204    -0.31900
C901        C  0.61309288  0.66879687  0.21081053     0.02300
C902        C  0.60772731  0.65576020  0.23799896    -0.33500
H903        H  0.60463408  0.72075860  0.20359219     0.13400
H904        H  0.61311807  0.74782824  0.14746071     0.13200
H905        H  0.64243826  0.67936140  0.08941611     0.13100
H906        H  0.63394737  0.65228339  0.14555949     0.12100
C907        C  0.80475286  0.87206578  0.04957179     0.18400
C908        C  0.77986476  0.87557355  0.06583120    -0.10700
C909        C  0.75714803  0.86826790  0.04618998    -0.11500
C910        C  0.75917501  0.85740898  0.01015115     0.20000
C911        C  0.78400416  0.85465210  0.99343491    -0.13600
C912        C  0.80672517  0.86194497  0.01308762    -0.11900
C913        C  0.73616176  0.84692277  0.99175602     0.01000
C914        C  0.71774339  0.83572277  0.97749164    -0.31900
C915        C  0.82814510  0.87623453  0.07175647     0.02300
C916        C  0.84684740  0.87685572  0.09266403    -0.33500
H917        H  0.77807323  0.88310742  0.09416187     0.13400
H918        H  0.73810573  0.87028905  0.05956632     0.13200
H919        H  0.78585826  0.84606945  0.96572627     0.13100
H920        H  0.82583647  0.85886298  0.00034333     0.12100
C921        C  0.73099946  0.75015423  0.79183250     0.18400
C922        C  0.72517376  0.72412122  0.78177213    -0.10700
C923        C  0.74079462  0.71095276  0.75546047    -0.11500
C924        C  0.76238017  0.72372134  0.73913112     0.20000
C925        C  0.76814968  0.74980631  0.74904476    -0.13600
C926        C  0.75251991  0.76298365  0.77538451    -0.11900
C927        C  0.77813493  0.71036206  0.71143751     0.01000
C928        C  0.79069445  0.70026785  0.68657328    -0.31900
C929        C  0.71539314  0.76320773  0.81999195     0.02300
C930        C  0.70248451  0.77240169  0.84520299    -0.33500
H931        H  0.70864549  0.71396834  0.79441393     0.13400
H932        H  0.73604978  0.69085307  0.74786242     0.13200
H933        H  0.78470506  0.75993169  0.73643117     0.13100
H934        H  0.75727997  0.78306780  0.78304434     0.12100
C935        C  0.51255928  0.71325444  0.37733915     0.18400
C936        C  0.52226128  0.73879105  0.38298610    -0.10700
C937        C  0.50502107  0.76031351  0.38288806    -0.11500
C938        C  0.47800772  0.75639231  0.37714075     0.20000
C939        C  0.46824520  0.73078098  0.37266115    -0.13600
C940        C  0.48546298  0.70928663  0.37276258    -0.11900
C941        C  0.46062498  0.77861336  0.37260029     0.01000
C942        C  0.44606167  0.79669313  0.36531644    -0.31900
C943        C  0.53043836  0.69143007  0.37295443     0.02300
C944        C  0.54492173  0.67327817  0.36577996    -0.33500
H945        H  0.54319089  0.74213807  0.38628059     0.13400
H946        H  0.51283735  0.78002924  0.38611195     0.13200
H947        H  0.44744125  0.72749993  0.36792566     0.13100
H948        H  0.47774557  0.68967270  0.36809952     0.12100
C949        C  0.35626045  0.04468246  0.23663566     0.18400
C950        C  0.35272148  0.01956526  0.22112983    -0.10700
C951        C  0.36049392  0.99716388  0.24115396    -0.11500
C952        C  0.37186225  0.99974629  0.27679286     0.20000
C953        C  0.37448294  0.02479115  0.29289491    -0.13600
C954        C  0.36670966  0.04720320  0.27285981    -0.11900
C955        C  0.38304812  0.97706297  0.29517836     0.01000
C956        C  0.39451407  0.95858873  0.30886679    -0.31900
C957        C  0.35215423  0.06773181  0.21373010     0.02300
C958        C  0.35187931  0.08611411  0.19224149    -0.33500
H959        H  0.34493385  0.01735841  0.19299755     0.13400
H960        H  0.35854118  0.97793683  0.22828938     0.13200
H961        H  0.38342103  0.02706418  0.32030957     0.13100
H962        H  0.36981089  0.06651065  0.28499435     0.12100
C963        C  0.54280760  0.85762938  0.10323840     0.18400
C964        C  0.51790915  0.84616263  0.10754606    -0.10700
C965        C  0.50277221  0.85174001  0.13935042    -0.11500
C966        C  0.51247415  0.86880715  0.16696810     0.20000
C967        C  0.53734409  0.88031632  0.16261515    -0.13600
C968        C  0.55248135  0.87473819  0.13081004    -0.11900
C969        C  0.49710553  0.87413228  0.20002334     0.01000
C970        C  0.48423186  0.87793080  0.22791788    -0.31900
C971        C  0.55848924  0.85167161  0.07071255     0.02300
C972        C  0.57154010  0.84631412  0.04352005    -0.33500
H973        H  0.51025625  0.83287550  0.08641533     0.13400
H974        H  0.48359258  0.84268045  0.14248487     0.13200
H975        H  0.54505725  0.89348657  0.18384511     0.13100
H976        H  0.57172183  0.88367913  0.12777358     0.12100
C977        C  0.37294652  0.78328899  0.17630946     0.18400
C978        C  0.39072863  0.76380954  0.16479820    -0.10700
C979        C  0.38509658  0.74820277  0.13347965    -0.11500
C980        C  0.36164799  0.75197802  0.11349687     0.20000
C981        C  0.34385634  0.77147180  0.12496394    -0.13600
C982        C  0.34949273  0.78709113  0.15631281    -0.11900
C983        C  0.35603414  0.73594378  0.08114474     0.01000
C984        C  0.35210784  0.72240822  0.05390873    -0.31900
C985        C  0.37877881  0.79924886  0.20868018     0.02300
C986        C  0.38399178  0.81230260  0.23597298    -0.33500
H987        H  0.40891845  0.76068647  0.18002909     0.13400
H988        H  0.39901305  0.73321770  0.12484073     0.13200
H989        H  0.32568185  0.77459263  0.10969612     0.13100
H990        H  0.33559528  0.80209023  0.16495211     0.12100
C991        C  0.25689701  0.86161062  0.52096638     0.18400
C992        C  0.28005422  0.86884155  0.53973207    -0.10700
C993        C  0.30268678  0.87538049  0.51925929    -0.11500
C994        C  0.30225309  0.87471923  0.47992672     0.20000
C995        C  0.27882014  0.86841152  0.46121589    -0.13600
C996        C  0.25623734  0.86187504  0.48164755    -0.11900
C997        C  0.32619024  0.87793436  0.45861490     0.01000
C998        C  0.34523427  0.87761652  0.43832945    -0.31900
C999        C  0.23476567  0.85126417  0.54162600     0.02300
C1000       C  0.21702160  0.83968278  0.55700701    -0.33500
H1001       H  0.28089548  0.86848252  0.57010977     0.13400
H1002       H  0.32071686  0.88001553  0.53406827     0.13200
H1003       H  0.27826475  0.86762144  0.43083284     0.13100
H1004       H  0.23855634  0.85609710  0.46678101     0.12100
C1005       C  0.51165608  0.21270076  0.65788223     0.18400
C1006       C  0.52099951  0.23858727  0.66062562    -0.10700
C1007       C  0.50336189  0.25973444  0.65991105    -0.11500
C1008       C  0.47628208  0.25512169  0.65644406     0.20000
C1009       C  0.46699458  0.22927981  0.65256113    -0.13600
C1010       C  0.48464591  0.20811717  0.65326728    -0.11900
C1011       C  0.45802799  0.27666770  0.66024419     0.01000
C1012       C  0.44330381  0.29466841  0.66712677    -0.31900
C1013       C  0.52947280  0.19090705  0.66296244     0.02300
C1014       C  0.54414456  0.17296534  0.67042790    -0.33500
H1015       H  0.54180727  0.24237769  0.66447269     0.13400
H1016       H  0.51075722  0.27960597  0.66323536     0.13200
H1017       H  0.44608794  0.22544857  0.65016540     0.13100
H1018       H  0.47716799  0.18818478  0.65138778     0.12100
C1019       C  0.47563713  0.09759690  0.86498417     0.18400
C1020       C  0.48713005  0.10053685  0.90047127    -0.10700
C1021       C  0.47131205  0.10534060  0.93184069    -0.11500
C1022       C  0.44394494  0.10721393  0.92784565     0.20000
C1023       C  0.43244301  0.10423686  0.89236801    -0.13600
C1024       C  0.44826521  0.09942904  0.86099042    -0.11900
C1025       C  0.42779019  0.11267118  0.96005687     0.01000
C1026       C  0.41483470  0.11798754  0.98734525    -0.31900
C1027       C  0.49193311  0.09308459  0.83261871     0.02300
C1028       C  0.50551450  0.08977129  0.80530323    -0.33500
H1029       H  0.50828061  0.09922688  0.90384704     0.13400
H1030       H  0.48040599  0.10770336  0.95913805     0.13200
H1031       H  0.41130883  0.10574047  0.88895715     0.13100
H1032       H  0.43919289  0.09725500  0.83364787     0.12100
C1033       C  0.63231584  0.92349103  0.79910891     0.18400
C1034       C  0.63458763  0.94829024  0.81605251    -0.10700
C1035       C  0.62763906  0.97101447  0.79617598    -0.11500
C1036       C  0.61838176  0.96906171  0.75923733     0.20000
C1037       C  0.61670555  0.94431518  0.74198963    -0.13600
C1038       C  0.62364444  0.92157978  0.76188139    -0.11900
C1039       C  0.60838605  0.99205657  0.74030131     0.01000
C1040       C  0.59745000  0.01055574  0.72585300    -0.31900
C1041       C  0.63640899  0.90005592  0.82112408     0.02300
C1042       C  0.63700401  0.88134947  0.84196914    -0.33500
H1043       H  0.64096271  0.94998958  0.84497161     0.13400
H1044       H  0.62874572  0.98999433  0.80995720     0.13200
H1045       H  0.60930043  0.94253145  0.71358966     0.13100
H1046       H  0.62149977  0.90250188  0.74863898     0.12100
C1047       C  0.48012462  0.96866275  0.49229130     0.18400
C1048       C  0.49735995  0.95686410  0.51800018    -0.10700
C1049       C  0.51181392  0.97241227  0.54304660    -0.11500
C1050       C  0.50922268  0.99989018  0.54247448     0.20000
C1051       C  0.49189623  0.01170472  0.51687833    -0.13600
C1052       C  0.47743728  0.99614643  0.49180803    -0.11900
C1053       C  0.52339944  0.01578758  0.56928427     0.01000
C1054       C  0.53350144  0.02856922  0.59397609    -0.31900
C1055       C  0.46637208  0.95267721  0.46513469     0.02300
C1056       C  0.45681595  0.93955792  0.44035483    -0.33500
H1057       H  0.49976079  0.93567021  0.51850443     0.13400
H1058       H  0.52496752  0.96301060  0.56288160     0.13200
H1059       H  0.48954268  0.03290472  0.51634134     0.13100
H1060       H  0.46432322  0.00554222  0.47191245     0.12100
C1061       C  0.62701703  0.21539454  0.92187895     0.18400
C1062       C  0.60897520  0.22361221  0.89454994    -0.10700
C1063       C  0.60410523  0.20783426  0.86316122    -0.11500
C1064       C  0.61724584  0.18375908  0.85893919     0.20000
C1065       C  0.63520969  0.17546982  0.88635296    -0.13600
C1066       C  0.64008377  0.19126193  0.91777046    -0.11900
C1067       C  0.61226095  0.16770728  0.82641385     0.01000
C1068       C  0.60740384  0.15489412  0.79878229    -0.31900
C1069       C  0.63207190  0.23173270  0.95407224     0.02300
C1070       C  0.63596760  0.24550124  0.98105710    -0.33500
H1071       H  0.59872945  0.24221065  0.89747234     0.13400
H1072       H  0.59015231  0.21442036  0.84216356     0.13200
H1073       H  0.64545711  0.15687754  0.88340145     0.13100
H1074       H  0.65404274  0.18470094  0.93877403     0.12100
C1075       C  0.72563837  0.11543441  0.50325706     0.18400
C1076       C  0.72677074  0.09447641  0.52880583    -0.10700
C1077       C  0.70426203  0.08711040  0.54888951    -0.11500
C1078       C  0.68052573  0.10065820  0.54349273     0.20000
C1079       C  0.67921282  0.12107976  0.51709257    -0.13600
C1080       C  0.70170080  0.12843595  0.49702065    -0.11900
C1081       C  0.65845724  0.09569974  0.56787261     0.01000
C1082       C  0.64111520  0.09443599  0.59092717    -0.31900
C1083       C  0.74932520  0.12511734  0.48582602     0.02300
C1084       C  0.76868108  0.13552405  0.47298550    -0.33500
H1085       H  0.74520591  0.08441844  0.53408563     0.13400
H1086       H  0.70559680  0.07150253  0.56954168     0.13200
H1087       H  0.66106534  0.13191190  0.51299116     0.13100
H1088       H  0.70062655  0.14480624  0.47756344     0.12100
loop_ 
_geom_bond_atom_site_label_1 
_geom_bond_atom_site_label_2 
_geom_bond_distance 
_geom_bond_site_symmetry_2 
_ccdc_geom_bond_type 
O1           Ni7   1.930       .  S
O1           C22   1.270       .  A
O2          Ni25   1.898       .  S
O2           C11   1.262       .  A
O3           Ni7   1.919       .  S
O3          Ni25   1.906       .  S
O3          Ni19   1.914       .  S
O3           H26   0.966       .  S
C4           O21   1.274       .  A
C4           O13   1.272       .  A
C4         C1054   1.438       .  S
O5          Ni24   1.934       .  S
O5           C11   1.270       .  A
O6          Ni24   1.904       .  S
O6            C8   1.267       .  A
Ni7          O10   1.932       .  S
Ni7          O12   1.910       .  S
C8           O18   1.272       .  A
C8         C1040   1.436       .  S
O9          Ni25   1.908       .  S
O9           C15   1.270       .  A
O10          C15   1.274       .  A
C11        C1028   1.433       .  S
O12          C14   1.267       .  A
O13         Ni24   1.921       .  S
C14          O20   1.269       .  A
C14        C1014   1.436       .  S
C15        C1068   1.435       .  S
H16          O17   0.966       .  S
O17         Ni25   1.911       .  S
O17         Ni19   1.915       .  S
O17         Ni24   1.919       .  S
O18         Ni19   1.934       .  S
Ni19         O23   1.909       .  S
Ni19         O21   1.922       .  S
O20         Ni25   1.926       .  S
C22          O23   1.267       .  A
C22        C1082   1.435       .  S
O27         Ni33   1.936       .  S
O27          C48   1.270       .  A
O28         Ni51   1.910       .  S
O28          C37   1.267       .  A
O29         Ni33   1.924       .  S
O29         Ni51   1.918       .  S
O29         Ni45   1.913       .  S
O29          H52   0.965       .  S
C30          O47   1.268       .  A
C30          O39   1.274       .  A
C30         C986   1.436       .  S
O31         Ni50   1.932       .  S
O31          C37   1.271       .  A
O32         Ni50   1.910       .  S
O32          C34   1.267       .  A
Ni33         O36   1.922       .  S
Ni33         O38   1.906       .  S
C34          O44   1.270       .  A
C34         C942   1.437       .  S
O35         Ni51   1.922       .  S
O35          C41   1.273       .  A
O36          C41   1.272       .  A
C37         C998   1.438       .  S
O38          C40   1.268       .  A
O39         Ni50   1.936       .  S
C40          O46   1.271       .  A
C40         C956   1.437       .  S
C41        C1056   1.439       .  S
H42          O43   0.967       .  S
O43         Ni51   1.916       .  S
O43         Ni45   1.907       .  S
O43         Ni50   1.923       .  S
O44         Ni45   1.931       .  S
Ni45         O49   1.897       .  S
Ni45         O47   1.905       .  S
O46         Ni51   1.930       .  S
C48          O49   1.261       .  A
C48         C970   1.434       .  S
O53         Ni59   1.928       .  S
O53          C74   1.269       .  A
O54         Ni77   1.897   1_554  S
O54          C63   1.262       .  A
O55         Ni59   1.919       .  S
O55         Ni77   1.904       .  S
O55         Ni71   1.912       .  S
O55          H78   0.966       .  S
C56          O73   1.273       .  A
C56          O65   1.273       .  A
C56         C930   1.436       .  S
O57         Ni76   1.934   1_554  S
O57          C63   1.270       .  A
O58         Ni76   1.905       .  S
O58          C60   1.267       .  A
Ni59         O62   1.929       .  S
Ni59         O64   1.909       .  S
C60          O70   1.272       .  A
C60         C914   1.438       .  S
O61         Ni77   1.909   1_554  S
O61          C67   1.271       .  A
O62          C67   1.275   1_556  A
C63         C900   1.432       .  S
O64          C66   1.266       .  A
O65         Ni76   1.924       .  S
C66          O72   1.268       .  A
C66         C886   1.433       .  S
C67         C972   1.434       .  S
H68          O69   0.966       .  S
O69         Ni77   1.911       .  S
O69         Ni71   1.915       .  S
O69         Ni76   1.919       .  S
O70         Ni71   1.933       .  S
Ni71         O75   1.910       .  S
Ni71         O73   1.916       .  S
O72         Ni77   1.921       .  S
C74          O75   1.267       .  A
C74        C1042   1.435       .  S
O79         Ni85   1.933       .  S
O79         C100   1.269       .  A
O80        Ni103   1.908       .  S
O80          C89   1.267       .  A
O81         Ni85   1.921       .  S
O81        Ni103   1.914       .  S
O81         Ni97   1.909       .  S
O81         H104   0.966       .  S
C82          O99   1.268       .  A
C82          O91   1.273       .  A
C82         C858   1.435       .  S
O83        Ni102   1.930       .  S
O83          C89   1.270       .  A
O84        Ni102   1.907       .  S
O84          C86   1.267       .  A
Ni85         O88   1.919       .  S
Ni85         O90   1.905       .  S
C86          O96   1.270       .  A
C86         C818   1.435       .  S
O87        Ni103   1.919       .  S
O87          C93   1.273       .  A
O88          C93   1.272       .  A
C89         C872   1.436       .  S
O90          C92   1.267       .  A
O91        Ni102   1.935       .  S
C92          O98   1.271       .  A
C92         C830   1.435       .  S
C93         C928   1.435       .  S
H94          O95   0.965       .  S
O95        Ni103   1.916       .  S
O95         Ni97   1.910       .  S
O95        Ni102   1.922       .  S
O96         Ni97   1.931       .  S
Ni97        O101   1.899       .  S
Ni97         O99   1.904       .  S
O98        Ni103   1.930       .  S
C100        O101   1.262       .  A
C100        C846   1.433       .  S
O105       Ni111   1.936       .  S
O105        C126   1.270       .  A
O106       Ni129   1.910       .  S
O106        C115   1.267       .  A
O107       Ni111   1.924       .  S
O107       Ni129   1.920       .  S
O107       Ni123   1.911       .  S
O107        H130   0.966       .  S
C108        O125   1.268       .  A
C108        O117   1.274       .  A
C108        C788   1.431       .  S
O109       Ni128   1.930       .  S
O109        C115   1.269       .  A
O110       Ni128   1.908       .  S
O110        C112   1.267       .  A
Ni111       O114   1.920       .  S
Ni111       O116   1.904       .  S
C112        O122   1.270       .  A
C112        C732   1.437       .  S
O113       Ni129   1.911       .  S
O113        C119   1.270       .  A
O114        C119   1.271       .  A
C115        C804   1.436       .  S
O116        C118   1.268       .  A
O117       Ni128   1.931       .  S
C118        O124   1.273       .  A
C118        C762   1.437       .  S
C119        C774   1.430       .  S
H120        O121   0.966       .  S
O121       Ni129   1.910       .  S
O121       Ni123   1.908       .  S
O121       Ni128   1.923       .  S
O122       Ni123   1.930       .  S
Ni123       O127   1.901       .  S
Ni123       O125   1.901       .  S
O124       Ni129   1.935       .  S
C126        O127   1.262       .  A
C126        C748   1.438       .  S
O131       Ni137   1.931       .  S
O131        C152   1.270       .  A
O132       Ni155   1.899       .  S
O132        C141   1.262       .  A
O133       Ni137   1.920       .  S
O133       Ni155   1.907       .  S
O133       Ni149   1.910       .  S
O133        H156   0.966       .  S
C134        O151   1.271       .  A
C134        O143   1.272       .  A
C134        C776   1.430       .  S
O135       Ni154   1.934       .  S
O135        C141   1.270       .  A
O136       Ni154   1.907       .  S
O136        C138   1.268       .  A
Ni137       O140   1.928       .  S
Ni137       O142   1.913       .  S
C138        O148   1.272       .  A
C138        C704   1.438       .  S
O139       Ni155   1.908       .  S
O139        C145   1.271       .  A
O140        C145   1.274       .  A
C141        C718   1.433       .  S
O142        C144   1.268       .  A
O143       Ni154   1.920       .  S
C144        O150   1.268       .  A
C144        C690   1.438       .  S
C145        C844   1.433       .  S
H146        O147   0.966       .  S
O147       Ni155   1.910       .  S
O147       Ni149   1.916       .  S
O147       Ni154   1.920       .  S
O148       Ni149   1.934       .  S
Ni149       O153   1.912       .  S
Ni149       O151   1.912       .  S
O150       Ni155   1.924       .  S
C152        O153   1.267       .  A
C152        C916   1.438       .  S
O157       Ni163   1.935       .  S
O157        C178   1.269       .  A
O158       Ni181   1.910       .  S
O158        C167   1.268       .  A
O159       Ni163   1.918       .  S
O159       Ni181   1.915       .  S
O159       Ni175   1.908       .  S
O159        H182   0.965       .  S
C160        O177   1.270       .  A
C160        O169   1.275       .  A
C160        C720   1.433       .  S
O161       Ni180   1.932       .  S
O161        C167   1.271       .  A
O162       Ni180   1.910       .  S
O162        C164   1.267       .  A
Ni163       O166   1.921       .  S
Ni163       O168   1.906       .  S
C164        O174   1.270       .  A
C164        C816   1.437       .  S
O165       Ni181   1.920       .  S
O165        C171   1.274       .  A
O166        C171   1.273       .  A
C167        C760   1.437       .  S
O168        C170   1.267       .  A
O169       Ni180   1.933       .  S
C170        O176   1.272       .  A
C170       C1000   1.438       .  S
C171        C676   1.436       .  S
H172        O173   0.966       .  S
O173       Ni181   1.911       .  S
O173       Ni175   1.905       .  S
O173       Ni180   1.917       .  S
O174       Ni175   1.928       .  S
Ni175       O179   1.899       .  S
Ni175       O177   1.903       .  S
O176       Ni181   1.933       .  S
C178        O179   1.263       .  A
C178        C662   1.434       .  S
O183       Ni189   1.929       .  S
O183        C204   1.269       .  A
O184       Ni207   1.900   1_554  S
O184        C193   1.264       .  A
O185       Ni189   1.919       .  S
O185       Ni207   1.907       .  S
O185       Ni201   1.916       .  S
O185        H208   0.967       .  S
C186        O203   1.275       .  A
C186        O195   1.274       .  A
C186        C678   1.437       .  S
O187       Ni206   1.937   1_554  S
O187        C193   1.271       .  A
O188       Ni206   1.908       .  S
O188        C190   1.268       .  A
Ni189       O192   1.929       .  S
Ni189       O194   1.907       .  S
C190        O200   1.271       .  A
C190        C620   1.438       .  S
O191       Ni207   1.912   1_554  S
O191        C197   1.272       .  A
O192        C197   1.274   1_556  A
C193        C984   1.435       .  S
O194        C196   1.266       .  A
O195       Ni206   1.923       .  S
C196        O202   1.269       .  A
C196        C888   1.433       .  S
C197        C634   1.436       .  S
H198        O199   0.966       .  S
O199       Ni207   1.909       .  S
O199       Ni201   1.911       .  S
O199       Ni206   1.916       .  S
O200       Ni201   1.931       .  S
Ni201       O205   1.909       .  S
Ni201       O203   1.921       .  S
O202       Ni207   1.924       .  S
C204        O205   1.267       .  A
C204        C650   1.435       .  S
O209       Ni215   1.929       .  S
O209        C230   1.269       .  A
O210       Ni233   1.897       .  S
O210        C219   1.262       .  A
O211       Ni215   1.920       .  S
O211       Ni233   1.906       .  S
O211       Ni227   1.911       .  S
O211        H234   0.966       .  S
C212        O229   1.272       .  A
C212        O221   1.272       .  A
C212        C580   1.434       .  S
O213       Ni232   1.935       .  S
O213        C219   1.270       .  A
O214       Ni232   1.904       .  S
O214        C216   1.267       .  A
Ni215       O218   1.928       .  S
Ni215       O220   1.909       .  S
C216        O226   1.272       .  A
C216        C564   1.435       .  S
O217       Ni233   1.909       .  S
O217        C223   1.271       .  A
O218        C223   1.274       .  A
C219        C790   1.433       .  S
O220        C222   1.267       .  A
O221       Ni232   1.921       .  S
C222        O228   1.268       .  A
C222        C552   1.435       .  S
C223        C594   1.433       .  S
H224        O225   0.966       .  S
O225       Ni233   1.913       .  S
O225       Ni227   1.918       .  S
O225       Ni232   1.921       .  S
O226       Ni227   1.932       .  S
Ni227       O231   1.911       .  S
Ni227       O229   1.915       .  S
O228       Ni233   1.925       .  S
C230        O231   1.267       .  A
C230        C608   1.437       .  S
O235       Ni241   1.934       .  S
O235        C256   1.270       .  A
O236       Ni259   1.911       .  S
O236        C245   1.267       .  A
O237       Ni241   1.919       .  S
O237       Ni259   1.915       .  S
O237       Ni253   1.910       .  S
O237        H260   0.966       .  S
C238        O255   1.270       .  A
C238        O247   1.274       .  A
C238       C1026   1.433   1_554  S
O239       Ni258   1.930       .  S
O239        C245   1.270       .  A
O240       Ni258   1.912       .  S
O240        C242   1.267       .  A
Ni241       O244   1.922       .  S
Ni241       O246   1.906       .  S
C242        O252   1.269       .  A
C242        C524   1.438       .  S
O243       Ni259   1.917       .  S
O243        C249   1.273       .  A
O244        C249   1.273       .  A
C245        C958   1.437       .  S
O246        C248   1.267       .  A
O247       Ni258   1.929       .  S
C248        O254   1.271       .  A
C248        C802   1.436       .  S
C249        C578   1.435       .  S
H250        O251   0.966       .  S
O251       Ni259   1.913       .  S
O251       Ni253   1.905       .  S
O251       Ni258   1.918       .  S
O252       Ni253   1.926       .  S
Ni253       O257   1.899       .  S
Ni253       O255   1.907       .  S
O254       Ni259   1.930       .  S
C256        O257   1.263       .  A
C256        C536   1.433   1_554  S
O261       Ni267   1.935       .  S
O261        C282   1.270       .  A
O262       Ni285   1.907       .  S
O262        C271   1.266       .  A
O263       Ni267   1.922       .  S
O263       Ni285   1.916       .  S
O263       Ni279   1.910       .  S
O263        H286   0.966       .  S
C264        O281   1.269       .  A
C264        O273   1.273       .  A
C264        C902   1.432       .  S
O265       Ni284   1.929       .  S
O265        C271   1.270       .  A
O266       Ni284   1.908       .  S
O266        C268   1.267       .  A
Ni267       O270   1.921       .  S
Ni267       O272   1.905       .  S
C268        O278   1.271       .  A
C268        C944   1.437       .  S
O269       Ni285   1.917       .  S
O269        C275   1.272       .  A
O270        C275   1.272       .  A
C271        C832   1.434       .  S
O272        C274   1.267       .  A
O273       Ni284   1.931       .  S
C274        O280   1.271       .  A
C274        C496   1.436       .  S
C275        C510   1.434       .  S
H276        O277   0.966       .  S
O277       Ni285   1.913       .  S
O277       Ni279   1.908       .  S
O277       Ni284   1.921       .  S
O278       Ni279   1.931       .  S
Ni279       O283   1.900       .  S
Ni279       O281   1.903       .  S
O280       Ni285   1.930       .  S
C282        O283   1.263       .  A
C282        C636   1.436       .  S
O287       Ni293   1.930       .  S
O287        C308   1.270       .  A
O288       Ni311   1.899       .  S
O288        C297   1.263       .  A
O289       Ni293   1.920       .  S
O289       Ni311   1.906       .  S
O289       Ni305   1.913       .  S
O289        H312   0.966       .  S
C290        O307   1.273       .  A
C290        O299   1.272       .  A
C290        C508   1.434       .  S
O291       Ni310   1.937       .  S
O291        C297   1.270       .  A
O292       Ni310   1.904       .  S
O292        C294   1.267       .  A
Ni293       O296   1.929       .  S
Ni293       O298   1.910       .  S
C294        O304   1.271       .  A
C294        C648   1.434       .  S
O295       Ni311   1.907       .  S
O295        C301   1.270       .  A
O296        C301   1.274       .  A
C297        C480   1.436       .  S
O298        C300   1.267       .  A
O299       Ni310   1.922       .  S
C300        O306   1.269       .  A
C300       C1012   1.436       .  S
C301        C538   1.433       .  S
H302        O303   0.966       .  S
O303       Ni311   1.910       .  S
O303       Ni305   1.916       .  S
O303       Ni310   1.920       .  S
O304       Ni305   1.930       .  S
Ni305       O309   1.909       .  S
Ni305       O307   1.916       .  S
O306       Ni311   1.924       .  S
C308        O309   1.266       .  A
C308        C566   1.435       .  S
O313       Ni319   1.930       .  S
O313        C334   1.270       .  A
O314       Ni337   1.897       .  S
O314        C323   1.262       .  A
O315       Ni319   1.921       .  S
O315       Ni337   1.907       .  S
O315       Ni331   1.918       .  S
O315        H338   0.966       .  S
C316        O333   1.275       .  A
C316        O325   1.273       .  A
C316        C466   1.438       .  S
O317       Ni336   1.935       .  S
O317        C323   1.270       .  A
O318       Ni336   1.906       .  S
O318        C320   1.267       .  A
Ni319       O322   1.935       .  S
Ni319       O324   1.909       .  S
C320        O330   1.271       .  A
C320       C1084   1.436       .  S
O321       Ni337   1.909       .  S
O321        C327   1.270       .  A
O322        C327   1.274       .  A
C323        C452   1.432       .  S
O324        C326   1.267       .  A
O325       Ni336   1.920       .  S
C326        O332   1.269       .  A
C326        C550   1.435       .  S
C327        C746   1.439       .  S
H328        O329   0.966       .  S
O329       Ni337   1.911       .  S
O329       Ni331   1.913       .  S
O329       Ni336   1.919       .  S
O330       Ni331   1.931       .  S
Ni331       O335   1.912       .  S
Ni331       O333   1.925       .  S
O332       Ni337   1.926       .  S
C334        O335   1.268       .  A
C334        C706   1.438       .  S
O339       Ni345   1.936       .  S
O339        C360   1.270       .  A
O340       Ni363   1.910       .  S
O340        C349   1.267       .  A
O341       Ni345   1.919       .  S
O341       Ni363   1.915       .  S
O341       Ni357   1.910       .  S
O341        H364   0.965       .  S
C342        O359   1.270       .  A
C342        O351   1.275       .  A
C342        C482   1.436   1_554  S
O343       Ni362   1.931       .  S
O343        C349   1.270       .  A
O344       Ni362   1.911       .  S
O344        C346   1.267       .  A
Ni345       O348   1.922       .  S
Ni345       O350   1.905       .  S
C346        O356   1.269       .  A
C346        C522   1.437       .  S
O347       Ni363   1.919       .  S
O347        C353   1.273       .  A
O348        C353   1.273       .  A
C349        C494   1.436       .  S
O350        C352   1.267       .  A
O351       Ni362   1.935       .  S
C352        O358   1.273       .  A
C352        C438   1.438       .  S
C353        C468   1.437       .  S
H354        O355   0.967       .  S
O355       Ni363   1.913       .  S
O355       Ni357   1.906       .  S
O355       Ni362   1.921       .  S
O356       Ni357   1.926       .  S
Ni357       O361   1.898       .  S
Ni357       O359   1.906       .  S
O358       Ni363   1.935       .  S
C360        O361   1.262       .  A
C360       C1070   1.434   1_554  S
O365       Ni371   1.931       .  S
O365        C386   1.270       .  A
O366       Ni389   1.900       .  S
O366        C375   1.263       .  A
O367       Ni371   1.921       .  S
O367       Ni389   1.909       .  S
O367       Ni383   1.915       .  S
O367        H390   0.966       .  S
C368        O385   1.274       .  A
C368        O377   1.273       .  A
C368        C426   1.436       .  S
O369       Ni388   1.935       .  S
O369        C375   1.270       .  A
O370       Ni388   1.906       .  S
O370        C372   1.267       .  A
Ni371       O374   1.932       .  S
Ni371       O376   1.911       .  S
C372        O382   1.271       .  A
C372        C606   1.438       .  S
O373       Ni389   1.905       .  S
O373        C379   1.269       .  A
O374        C379   1.274       .  A
C375        C860   1.435       .  S
O376        C378   1.268       .  A
O377       Ni388   1.922       .  S
C378        O384   1.271       .  A
C378        C692   1.439       .  S
C379        C664   1.434       .  S
H380        O381   0.966       .  S
O381       Ni389   1.908       .  S
O381       Ni383   1.914       .  S
O381       Ni388   1.920       .  S
O382       Ni383   1.932       .  S
Ni383       O387   1.911       .  S
Ni383       O385   1.919       .  S
O384       Ni389   1.930       .  S
C386        O387   1.267       .  A
C386        C622   1.438       .  S
O391       Ni397   1.935       .  S
O391        C412   1.270       .  A
O392       Ni415   1.913       .  S
O392        C401   1.268       .  A
O393       Ni397   1.918       .  S
O393       Ni415   1.915       .  S
O393       Ni409   1.911       .  S
O393        H416   0.965       .  S
C394        O411   1.271       .  A
C394        O403   1.275       .  A
C394        C454   1.432       .  S
O395       Ni414   1.928       .  S
O395        C401   1.270       .  A
O396       Ni414   1.911       .  S
O396        C398   1.267       .  A
Ni397       O400   1.921       .  S
Ni397       O402   1.906       .  S
C398        O408   1.269       .  A
C398        C734   1.438       .  S
O399       Ni415   1.921       .  S
O399        C405   1.274       .  A
O400        C405   1.273       .  A
C401        C440   1.437       .  S
O402        C404   1.267       .  A
O403       Ni414   1.929       .  S
C404        O410   1.272       .  A
C404        C874   1.437       .  S
C405        C424   1.436       .  S
H406        O407   0.966       .  S
O407       Ni415   1.912       .  S
O407       Ni409   1.903       .  S
O407       Ni414   1.917       .  S
O408       Ni409   1.927       .  S
Ni409       O413   1.898       .  S
Ni409       O411   1.908       .  S
O410       Ni415   1.933       .  S
C412        O413   1.262       .  A
C412        C592   1.433       .  S
C417        C425   1.441       .  S
C417        C418   1.401   1_455  A
C417        C422   1.402       .  A
C418        C419   1.400   1_554  A
C418        H427   1.083       .  S
C419        C420   1.402       .  A
C419        H428   1.083       .  S
C420        C423   1.441       .  S
C420        C421   1.401   1_556  A
C421        C422   1.399   1_655  A
C421        H429   1.083       .  S
C422        H430   1.083       .  S
C423        C424   1.207       .  T
C425        C426   1.207       .  T
C431        C439   1.443       .  S
C431        C432   1.402       .  A
C431        C436   1.402   1_556  A
C432        C433   1.400       .  A
C432        H441   1.084       .  S
C433        C434   1.401   1_556  A
C433        H442   1.083       .  S
C434        C437   1.443       .  S
C434        C435   1.402       .  A
C435        C436   1.401       .  A
C435        H443   1.083       .  S
C436        H444   1.083       .  S
C437        C438   1.208       .  T
C439        C440   1.207       .  T
C445        C453   1.437       .  S
C445        C446   1.400       .  A
C445        C450   1.401       .  A
C446        C447   1.398       .  A
C446        H455   1.083       .  S
C447        C448   1.401       .  A
C447        H456   1.083       .  S
C448        C451   1.437       .  S
C448        C449   1.401       .  A
C449        C450   1.398       .  A
C449        H457   1.084       .  S
C450        H458   1.084       .  S
C451        C452   1.204       .  T
C453        C454   1.204       .  T
C459        C467   1.442       .  S
C459        C460   1.402       .  A
C459        C464   1.401       .  A
C460        C461   1.399       .  A
C460        H469   1.083       .  S
C461        C462   1.400       .  A
C461        H470   1.083       .  S
C462        C465   1.443       .  S
C462        C463   1.403       .  A
C463        C464   1.401       .  A
C463        H471   1.083       .  S
C464        H472   1.083       .  S
C465        C466   1.208       .  T
C467        C468   1.207       .  T
C473        C481   1.441       .  S
C473        C474   1.401       .  A
C473        C478   1.402       .  A
C474        C475   1.399       .  A
C474        H483   1.083       .  S
C475        C476   1.401       .  A
C475        H484   1.083       .  S
C476        C479   1.441       .  S
C476        C477   1.402       .  A
C477        C478   1.400       .  A
C477        H485   1.083       .  S
C478        H486   1.083       .  S
C479        C480   1.207       .  T
C481        C482   1.207       .  T
C487        C495   1.441       .  S
C487        C488   1.402       .  A
C487        C492   1.401       .  A
C488        C489   1.401       .  A
C488        H497   1.083       .  S
C489        C490   1.402       .  A
C489        H498   1.083       .  S
C490        C493   1.441       .  S
C490        C491   1.401       .  A
C491        C492   1.398       .  A
C491        H499   1.084       .  S
C492        H500   1.084       .  S
C493        C494   1.207       .  T
C495        C496   1.206       .  T
C501        C509   1.440       .  S
C501        C502   1.401       .  A
C501        C506   1.402       .  A
C502        C503   1.398       .  A
C502        H511   1.083       .  S
C503        C504   1.401       .  A
C503        H512   1.083       .  S
C504        C507   1.440       .  S
C504        C505   1.402       .  A
C505        C506   1.400       .  A
C505        H513   1.083       .  S
C506        H514   1.083       .  S
C507        C508   1.206       .  T
C509        C510   1.206       .  T
C515        C523   1.442       .  S
C515        C516   1.402       .  A
C515        C520   1.401       .  A
C516        C517   1.401       .  A
C516        H525   1.083       .  S
C517        C518   1.402       .  A
C517        H526   1.083       .  S
C518        C521   1.442       .  S
C518        C519   1.401       .  A
C519        C520   1.399       .  A
C519        H527   1.083       .  S
C520        H528   1.083       .  S
C521        C522   1.207       .  T
C523        C524   1.208       .  T
C529        C537   1.438       .  S
C529        C530   1.401       .  A
C529        C534   1.401       .  A
C530        C531   1.398       .  A
C530        H539   1.083       .  S
C531        C532   1.401       .  A
C531        H540   1.083       .  S
C532        C535   1.438       .  S
C532        C533   1.401       .  A
C533        C534   1.399       .  A
C533        H541   1.083       .  S
C534        H542   1.083       .  S
C535        C536   1.205       .  T
C537        C538   1.205       .  T
C543        C551   1.440       .  S
C543        C544   1.402       .  A
C543        C548   1.401   1_455  A
C544        C545   1.400   1_455  A
C544        H553   1.083       .  S
C545        C546   1.402       .  A
C545        H554   1.083   1_655  S
C546        C549   1.440       .  S
C546        C547   1.401       .  A
C547        C548   1.398       .  A
C547        H555   1.083       .  S
C548        H556   1.084       .  S
C549        C550   1.206       .  T
C551        C552   1.206       .  T
C557        C565   1.440       .  S
C557        C558   1.402       .  A
C557        C562   1.401       .  A
C558        C559   1.399       .  A
C558        H567   1.083       .  S
C559        C560   1.401       .  A
C559        H568   1.083       .  S
C560        C563   1.440       .  S
C560        C561   1.402       .  A
C561        C562   1.399       .  A
C561        H569   1.083       .  S
C562        H570   1.083       .  S
C563        C564   1.206       .  T
C565        C566   1.206       .  T
C571        C579   1.439       .  S
C571        C572   1.400       .  A
C571        C576   1.402       .  A
C572        C573   1.398       .  A
C572        H581   1.083       .  S
C573        C574   1.401       .  A
C573        H582   1.083       .  S
C574        C577   1.440       .  S
C574        C575   1.401       .  A
C575        C576   1.399       .  A
C575        H583   1.083       .  S
C576        H584   1.084       .  S
C577        C578   1.206       .  T
C579        C580   1.206       .  T
C585        C593   1.437       .  S
C585        C586   1.402       .  A
C585        C590   1.400       .  A
C586        C587   1.399       .  A
C586        H595   1.084       .  S
C587        C588   1.401       .  A
C587        H596   1.083   1_455  S
C588        C591   1.438   1_455  S
C588        C589   1.401       .  A
C589        C590   1.397       .  A
C589        H597   1.084       .  S
C590        H598   1.083       .  S
C591        C592   1.205       .  T
C593        C594   1.205       .  T
C599        C607   1.442       .  S
C599        C600   1.401       .  A
C599        C604   1.402       .  A
C600        C601   1.400       .  A
C600        H609   1.083       .  S
C601        C602   1.402       .  A
C601        H610   1.084       .  S
C602        C605   1.442       .  S
C602        C603   1.401       .  A
C603        C604   1.400       .  A
C603        H611   1.083       .  S
C604        H612   1.083       .  S
C605        C606   1.208       .  T
C607        C608   1.207       .  T
C613        C621   1.443       .  S
C613        C614   1.403       .  A
C613        C618   1.401       .  A
C614        C615   1.401       .  A
C614        H623   1.083       .  S
C615        C616   1.402       .  A
C615        H624   1.083       .  S
C616        C619   1.443   1_554  S
C616        C617   1.401   1_554  A
C617        C618   1.399   1_556  A
C617        H625   1.084       .  S
C618        H626   1.084       .  S
C619        C620   1.208       .  T
C621        C622   1.208       .  T
C627        C635   1.440       .  S
C627        C628   1.402       .  A
C627        C632   1.401       .  A
C628        C629   1.400       .  A
C628        H637   1.083       .  S
C629        C630   1.402       .  A
C629        H638   1.083       .  S
C630        C633   1.441       .  S
C630        C631   1.401       .  A
C631        C632   1.399       .  A
C631        H639   1.083       .  S
C632        H640   1.084       .  S
C633        C634   1.207       .  T
C635        C636   1.206       .  T
C641        C649   1.440       .  S
C641        C642   1.401       .  A
C641        C646   1.402       .  A
C642        C643   1.398       .  A
C642        H651   1.084       .  S
C643        C644   1.401       .  A
C643        H652   1.084       .  S
C644        C647   1.440       .  S
C644        C645   1.401       .  A
C645        C646   1.400       .  A
C645        H653   1.083       .  S
C646        H654   1.083       .  S
C647        C648   1.206       .  T
C649        C650   1.206       .  T
C655        C663   1.439       .  S
C655        C656   1.401       .  A
C655        C660   1.401       .  A
C656        C657   1.399       .  A
C656        H665   1.083       .  S
C657        C658   1.401       .  A
C657        H666   1.083       .  S
C658        C661   1.439       .  S
C658        C659   1.401       .  A
C659        C660   1.399       .  A
C659        H667   1.083       .  S
C660        H668   1.083       .  S
C661        C662   1.205       .  T
C663        C664   1.205       .  T
C669        C677   1.442       .  S
C669        C670   1.402       .  A
C669        C674   1.402       .  A
C670        C671   1.400       .  A
C670        H679   1.083       .  S
C671        C672   1.401       .  A
C671        H680   1.083       .  S
C672        C675   1.441       .  S
C672        C673   1.402       .  A
C673        C674   1.400       .  A
C673        H681   1.083       .  S
C674        H682   1.083       .  S
C675        C676   1.207       .  T
C677        C678   1.207       .  T
C683        C691   1.443       .  S
C683        C684   1.403       .  A
C683        C688   1.401   1_455  A
C684        C685   1.401       .  A
C684        H693   1.083       .  S
C685        C686   1.402   1_455  A
C685        H694   1.083       .  S
C686        C689   1.443       .  S
C686        C687   1.402       .  A
C687        C688   1.400       .  A
C687        H695   1.083       .  S
C688        H696   1.083       .  S
C689        C690   1.208       .  T
C691        C692   1.208       .  T
C697        C705   1.443       .  S
C697        C698   1.402       .  A
C697        C702   1.402       .  A
C698        C699   1.400       .  A
C698        H707   1.083       .  S
C699        C700   1.402       .  A
C699        H708   1.083       .  S
C700        C703   1.443   1_545  S
C700        C701   1.402   1_545  A
C701        C702   1.401   1_565  A
C701        H709   1.083       .  S
C702        H710   1.083       .  S
C703        C704   1.208       .  T
C705        C706   1.208       .  T
C711        C719   1.438       .  S
C711        C712   1.400       .  A
C711        C716   1.402       .  A
C712        C713   1.397       .  A
C712        H721   1.083       .  S
C713        C714   1.400       .  A
C713        H722   1.083   1_455  S
C714        C717   1.438   1_455  S
C714        C715   1.402       .  A
C715        C716   1.399       .  A
C715        H723   1.084       .  S
C716        H724   1.084       .  S
C717        C718   1.205       .  T
C719        C720   1.205       .  T
C725        C733   1.443       .  S
C725        C726   1.402       .  A
C725        C730   1.402   1_655  A
C726        C727   1.399       .  A
C726        H735   1.083       .  S
C727        C728   1.401   1_655  A
C727        H736   1.084       .  S
C728        C731   1.442       .  S
C728        C729   1.402       .  A
C729        C730   1.401       .  A
C729        H737   1.083       .  S
C730        H738   1.083       .  S
C731        C732   1.207       .  T
C733        C734   1.208       .  T
C739        C747   1.443       .  S
C739        C740   1.402       .  A
C739        C744   1.402       .  A
C740        C741   1.401       .  A
C740        H749   1.083       .  S
C741        C742   1.402       .  A
C741        H750   1.083       .  S
C742        C745   1.444       .  S
C742        C743   1.402       .  A
C743        C744   1.400       .  A
C743        H751   1.083       .  S
C744        H752   1.083       .  S
C745        C746   1.208       .  T
C747        C748   1.208   1_655  T
C753        C761   1.442       .  S
C753        C754   1.402       .  A
C753        C758   1.402       .  A
C754        C755   1.399       .  A
C754        H763   1.084       .  S
C755        C756   1.401       .  A
C755        H764   1.083       .  S
C756        C759   1.442       .  S
C756        C757   1.402       .  A
C757        C758   1.400       .  A
C757        H765   1.083       .  S
C758        H766   1.083       .  S
C759        C760   1.207       .  T
C761        C762   1.207   1_565  T
C767        C775   1.435       .  S
C767        C768   1.401       .  A
C767        C772   1.400       .  A
C768        C769   1.397   1_565  A
C768        H777   1.084   1_565  S
C769        C770   1.400   1_654  A
C769        H778   1.083   1_655  S
C770        C773   1.436       .  S
C770        C771   1.401   1_545  A
C771        C772   1.397   1_456  A
C771        H779   1.084       .  S
C772        H780   1.083       .  S
C773        C774   1.203       .  T
C775        C776   1.203       .  T
C781        C789   1.438       .  S
C781        C782   1.401       .  A
C781        C786   1.401       .  A
C782        C783   1.398       .  A
C782        H791   1.083       .  S
C783        C784   1.401       .  A
C783        H792   1.084       .  S
C784        C787   1.436       .  S
C784        C785   1.401       .  A
C785        C786   1.398       .  A
C785        H793   1.083       .  S
C786        H794   1.083       .  S
C787        C788   1.204       .  T
C789        C790   1.205       .  T
C795        C803   1.441       .  S
C795        C796   1.401   1_556  A
C795        C800   1.402       .  A
C796        C797   1.399       .  A
C796        H805   1.083       .  S
C797        C798   1.402       .  A
C797        H806   1.083       .  S
C798        C801   1.441       .  S
C798        C799   1.401   1_554  A
C799        C800   1.399       .  A
C799        H807   1.083       .  S
C800        H808   1.083       .  S
C801        C802   1.206       .  T
C803        C804   1.207       .  T
C809        C817   1.440       .  S
C809        C810   1.402       .  A
C809        C814   1.401       .  A
C810        C811   1.400   1_655  A
C810        H819   1.083   1_655  S
C811        C812   1.401       .  A
C811        H820   1.083       .  S
C812        C815   1.441       .  S
C812        C813   1.402   1_455  A
C813        C814   1.399       .  A
C813        H821   1.083       .  S
C814        H822   1.083       .  S
C815        C816   1.207       .  T
C817        C818   1.206       .  T
C823        C831   1.439       .  S
C823        C824   1.401       .  A
C823        C828   1.401       .  A
C824        C825   1.398       .  A
C824        H833   1.084       .  S
C825        C826   1.401       .  A
C825        H834   1.083       .  S
C826        C829   1.440       .  S
C826        C827   1.402       .  A
C827        C828   1.399       .  A
C827        H835   1.083       .  S
C828        H836   1.083       .  S
C829        C830   1.206       .  T
C831        C832   1.205       .  T
C837        C845   1.438       .  S
C837        C838   1.401       .  A
C837        C842   1.401       .  A
C838        C839   1.398       .  A
C838        H847   1.083       .  S
C839        C840   1.401       .  A
C839        H848   1.084       .  S
C840        C843   1.438       .  S
C840        C841   1.400       .  A
C841        C842   1.398       .  A
C841        H849   1.083       .  S
C842        H850   1.083       .  S
C843        C844   1.205       .  T
C845        C846   1.205       .  T
C851        C859   1.440       .  S
C851        C852   1.401       .  A
C851        C856   1.402       .  A
C852        C853   1.398       .  A
C852        H861   1.083   1_655  S
C853        C854   1.401       .  A
C853        H862   1.083       .  S
C854        C857   1.440       .  S
C854        C855   1.401       .  A
C855        C856   1.399       .  A
C855        H863   1.083       .  S
C856        H864   1.083       .  S
C857        C858   1.206       .  T
C859        C860   1.206   1_655  T
C865        C873   1.442       .  S
C865        C866   1.402       .  A
C865        C870   1.401       .  A
C866        C867   1.399       .  A
C866        H875   1.084       .  S
C867        C868   1.401       .  A
C867        H876   1.084       .  S
C868        C871   1.441       .  S
C868        C869   1.402       .  A
C869        C870   1.400       .  A
C869        H877   1.083       .  S
C870        H878   1.083       .  S
C871        C872   1.207       .  T
C873        C874   1.207       .  T
C879        C887   1.438       .  S
C879        C880   1.401       .  A
C879        C884   1.401       .  A
C880        C881   1.399       .  A
C880        H889   1.083       .  S
C881        C882   1.401       .  A
C881        H890   1.084       .  S
C882        C885   1.438       .  S
C882        C883   1.401       .  A
C883        C884   1.398       .  A
C883        H891   1.083       .  S
C884        H892   1.083       .  S
C885        C886   1.205       .  T
C887        C888   1.205       .  T
C893        C901   1.437       .  S
C893        C894   1.401       .  A
C893        C898   1.401       .  A
C894        C895   1.398       .  A
C894        H903   1.084       .  S
C895        C896   1.401       .  A
C895        H904   1.084       .  S
C896        C899   1.437       .  S
C896        C897   1.401       .  A
C897        C898   1.398       .  A
C897        H905   1.083       .  S
C898        H906   1.083       .  S
C899        C900   1.204       .  T
C901        C902   1.204       .  T
C907        C915   1.443       .  S
C907        C908   1.402       .  A
C907        C912   1.402       .  A
C908        C909   1.400       .  A
C908        H917   1.083       .  S
C909        C910   1.401       .  A
C909        H918   1.083       .  S
C910        C913   1.443   1_554  S
C910        C911   1.402   1_554  A
C911        C912   1.400   1_556  A
C911        H919   1.083       .  S
C912        H920   1.083       .  S
C913        C914   1.208       .  T
C915        C916   1.208       .  T
C921        C929   1.441       .  S
C921        C922   1.402       .  A
C921        C926   1.401       .  A
C922        C923   1.399       .  A
C922        H931   1.083       .  S
C923        C924   1.401       .  A
C923        H932   1.083       .  S
C924        C927   1.441       .  S
C924        C925   1.402       .  A
C925        C926   1.400       .  A
C925        H933   1.083       .  S
C926        H934   1.083       .  S
C927        C928   1.206       .  T
C929        C930   1.206       .  T
C935        C943   1.442       .  S
C935        C936   1.402       .  A
C935        C940   1.401       .  A
C936        C937   1.401       .  A
C936        H945   1.083       .  S
C937        C938   1.402       .  A
C937        H946   1.083       .  S
C938        C941   1.442       .  S
C938        C939   1.401       .  A
C939        C940   1.399       .  A
C939        H947   1.083       .  S
C940        H948   1.083       .  S
C941        C942   1.207       .  T
C943        C944   1.207       .  T
C949        C957   1.442       .  S
C949        C950   1.402       .  A
C949        C954   1.402       .  A
C950        C951   1.399   1_545  A
C950        H959   1.083       .  S
C951        C952   1.401       .  A
C951        H960   1.083       .  S
C952        C955   1.442       .  S
C952        C953   1.402   1_565  A
C953        C954   1.400       .  A
C953        H961   1.083       .  S
C954        H962   1.083       .  S
C955        C956   1.207       .  T
C957        C958   1.207       .  T
C963        C971   1.439       .  S
C963        C964   1.401       .  A
C963        C968   1.401       .  A
C964        C965   1.399       .  A
C964        H973   1.084       .  S
C965        C966   1.401       .  A
C965        H974   1.084       .  S
C966        C969   1.439       .  S
C966        C967   1.401       .  A
C967        C968   1.399       .  A
C967        H975   1.083       .  S
C968        H976   1.083       .  S
C969        C970   1.205       .  T
C971        C972   1.205       .  T
C977        C985   1.441       .  S
C977        C978   1.401       .  A
C977        C982   1.402       .  A
C978        C979   1.399       .  A
C978        H987   1.083       .  S
C979        C980   1.401       .  A
C979        H988   1.084       .  S
C980        C983   1.440       .  S
C980        C981   1.402       .  A
C981        C982   1.400       .  A
C981        H989   1.083       .  S
C982        H990   1.083       .  S
C983        C984   1.206       .  T
C985        C986   1.207       .  T
C991        C999   1.443       .  S
C991        C992   1.402       .  A
C991        C996   1.401       .  A
C992        C993   1.402       .  A
C992       H1001   1.083       .  S
C993        C994   1.402       .  A
C993       H1002   1.083       .  S
C994        C997   1.443       .  S
C994        C995   1.402       .  A
C995        C996   1.399       .  A
C995       H1003   1.084       .  S
C996       H1004   1.084       .  S
C997        C998   1.208       .  T
C999       C1000   1.208       .  T
C1005      C1013   1.441       .  S
C1005      C1006   1.401       .  A
C1005      C1010   1.402       .  A
C1006      C1007   1.399       .  A
C1006      H1015   1.083       .  S
C1007      C1008   1.401       .  A
C1007      H1016   1.084       .  S
C1008      C1011   1.441       .  S
C1008      C1009   1.402       .  A
C1009      C1010   1.400       .  A
C1009      H1017   1.083       .  S
C1010      H1018   1.083       .  S
C1011      C1012   1.207       .  T
C1013      C1014   1.207       .  T
C1019      C1027   1.438       .  S
C1019      C1020   1.401       .  A
C1019      C1024   1.401       .  A
C1020      C1021   1.398       .  A
C1020      H1029   1.083       .  S
C1021      C1022   1.401       .  A
C1021      H1030   1.084       .  S
C1022      C1025   1.438       .  S
C1022      C1023   1.401       .  A
C1023      C1024   1.399       .  A
C1023      H1031   1.083       .  S
C1024      H1032   1.083       .  S
C1025      C1026   1.205       .  T
C1027      C1028   1.205       .  T
C1033      C1041   1.440       .  S
C1033      C1034   1.402       .  A
C1033      C1038   1.401       .  A
C1034      C1035   1.399       .  A
C1034      H1043   1.084       .  S
C1035      C1036   1.401       .  A
C1035      H1044   1.083       .  S
C1036      C1039   1.441       .  S
C1036      C1037   1.402       .  A
C1037      C1038   1.400       .  A
C1037      H1045   1.083       .  S
C1038      H1046   1.083       .  S
C1039      C1040   1.207   1_565  T
C1041      C1042   1.206       .  T
C1047      C1055   1.444       .  S
C1047      C1048   1.402       .  A
C1047      C1052   1.403       .  A
C1048      C1049   1.400       .  A
C1048      H1057   1.083       .  S
C1049      C1050   1.402       .  A
C1049      H1058   1.083       .  S
C1050      C1053   1.444   1_565  S
C1050      C1051   1.402   1_565  A
C1051      C1052   1.401   1_545  A
C1051      H1059   1.083       .  S
C1052      H1060   1.083   1_565  S
C1053      C1054   1.208       .  T
C1055      C1056   1.208       .  T
C1061      C1069   1.439       .  S
C1061      C1062   1.401       .  A
C1061      C1066   1.402       .  A
C1062      C1063   1.398       .  A
C1062      H1071   1.084       .  S
C1063      C1064   1.401       .  A
C1063      H1072   1.083       .  S
C1064      C1067   1.440       .  S
C1064      C1065   1.401       .  A
C1065      C1066   1.399       .  A
C1065      H1073   1.083       .  S
C1066      H1074   1.083       .  S
C1067      C1068   1.206       .  T
C1069      C1070   1.206       .  T
C1075      C1083   1.441       .  S
C1075      C1076   1.401       .  A
C1075      C1080   1.402       .  A
C1076      C1077   1.400       .  A
C1076      H1085   1.083       .  S
C1077      C1078   1.402       .  A
C1077      H1086   1.083       .  S
C1078      C1081   1.441       .  S
C1078      C1079   1.401       .  A
C1079      C1080   1.399       .  A
C1079      H1087   1.084       .  S
C1080      H1088   1.084       .  S
C1081      C1082   1.206       .  T
C1083      C1084   1.207       .  T
