geometry optimzed in LAMMPS
_audit_creation_date              2020-11-30 
_audit_creation_method            'lammps2cif' 
_symmetry_space_group_name_H-M    'P1' 
_symmetry_Int_Tables_number       1 
_symmetry_cell_setting            triclinic 
loop_ 
_symmetry_equiv_pos_as_xyz 
  x,y,z 
_cell_length_a                    44.557408801763074 
_cell_length_b                    44.55694972962584 
_cell_length_c                    39.00177638626005 
_cell_angle_alpha                 90.00069053178511 
_cell_angle_beta                  90.00296231309134 
_cell_angle_gamma                 120.00985525849917 
loop_ 
_atom_site_label 
_atom_site_type_symbol 
_atom_site_fract_x 
_atom_site_fract_y 
_atom_site_fract_z 
_atom_site_charge 
Zr1        Zr  0.27902113  0.37126491  0.66220140     2.17510
O2          O  0.24139406  0.32976381  0.70532622    -0.52250
O3          O  0.23470562  0.38715614  0.65025940    -0.75450
O4          O  0.28723458  0.39582874  0.72012206    -0.82240
O5          O  0.24904022  0.29609019  0.60072967    -0.83980
O6          O  0.33938225  0.44568390  0.72125617    -0.79610
O7          O  0.23366246  0.31263652  0.64977089    -0.91240
O8          O  0.24988835  0.41999327  0.60194696    -0.77200
O9          O  0.30880509  0.43097567  0.64682147    -0.86700
O10         O  0.27610251  0.37275987  0.60114486    -0.86390
O11         O  0.33729072  0.39239008  0.68237898    -0.73140
O12         O  0.30626578  0.33999324  0.64021131    -0.85280
Zr13       Zr  0.39224581  0.42454915  0.58363098     2.26420
Zr14       Zr  0.36705314  0.45233914  0.66609244     2.06270
Zr15       Zr  0.30389811  0.34280648  0.57901198     2.10050
Zr16       Zr  0.30694611  0.43230187  0.58571712     1.78760
O17         O  0.29414058  0.28493769  0.56714522    -0.94080
O18         O  0.31404364  0.48891118  0.59926074    -0.41890
O19         O  0.33444546  0.40235890  0.56211984    -0.78520
O20         O  0.36513067  0.45574421  0.60501330    -0.97210
O21         O  0.39503834  0.42250444  0.64436172    -0.90510
O22         O  0.36189408  0.36475958  0.59888560    -0.93360
C23         C  0.22891103  0.40356943  0.62637397     1.00400
C24         C  0.22833392  0.29071282  0.62595977     1.13330
C25         C  0.31174868  0.42207206  0.73577252     1.04110
O26         O  0.36419102  0.50515134  0.67317548    -0.95510
O27         O  0.42212231  0.49961625  0.64658719    -0.91250
O28         O  0.43856881  0.48289623  0.59823777    -0.84400
C29         C  0.44323490  0.00503831  0.62182827     1.10750
O30         O  0.33795875  0.32035992  0.70501687    -0.97480
Zr31       Zr  0.36496198  0.36291038  0.65923294     1.88940
O32         O  0.44086533  0.41662949  0.59715565    -0.74130
O33         O  0.41081254  0.46802090  0.71057559    -0.53390
O34         O  0.39815116  0.38204667  0.71234045    -0.98070
O35         O  0.36115311  0.30790489  0.64445066    -0.55290
O36         O  0.42453889  0.38106947  0.64360887    -0.74650
C37         C  0.44665953  0.40010635  0.62072279     0.97690
O38         O  0.41412151  0.46000414  0.53264744    -0.63470
O39         O  0.26782541  0.33956270  0.53059698    -0.58270
O40         O  0.39202663  0.39162312  0.53339861    -0.94960
O41         O  0.33930120  0.34232408  0.53115053    -0.93380
O42         O  0.27253751  0.41289882  0.53341849    -0.93740
O43         O  0.33195825  0.47388906  0.53913168    -0.92520
C44         C  0.37010937  0.36250276  0.51962376     1.16540
H45         H  0.25237332  0.36174758  0.59330203     0.32480
H46         H  0.37771884  0.47960171  0.59759404     0.43330
H47         H  0.37244977  0.35244733  0.58888918     0.36860
H48         H  0.33804693  0.38952458  0.70680882     0.33340
H49         H  0.29611354  0.49030740  0.58547727     0.25130
H50         H  0.41036130  0.48684197  0.72364634     0.31060
H51         H  0.41296488  0.37130645  0.71221653     0.36970
H52         H  0.26042242  0.42641354  0.53232779     0.31430
H53         H  0.27254008  0.32669146  0.51271311     0.30310
H54         H  0.27879886  0.27702196  0.54678358     0.31990
H55         H  0.38223245  0.31409556  0.63086487     0.30960
H56         H  0.35663973  0.48022365  0.53847468     0.34960
H57         H  0.39437306  0.44897355  0.51648981     0.27690
H58         H  0.22982955  0.34071654  0.71750240     0.31920
H59         H  0.35500611  0.31322288  0.71134701     0.34770
H60         H  0.24378745  0.32333171  0.53806821     0.27390
H61         H  0.41497890  0.48187592  0.53917217     0.40260
H62         H  0.34020287  0.49719572  0.68091073     0.30310
H63         H  0.30590426  0.48690192  0.62321404     0.37930
H64         H  0.34191037  0.29704891  0.62771201     0.29780
H65         H  0.40106994  0.44800407  0.72645753     0.29840
H66         H  0.25720548  0.32849262  0.72233705     0.30110
Zr67       Zr  0.38972496  0.26015457  0.34597171     2.17510
O68         O  0.34827502  0.22233812  0.30289751    -0.52250
O69         O  0.40561397  0.21583707  0.35793228    -0.75450
O70         O  0.41417153  0.26842027  0.28798024    -0.82240
O71         O  0.31455743  0.23026085  0.40744630    -0.83980
O72         O  0.46406726  0.32052780  0.28683469    -0.79610
O73         O  0.33106328  0.21488846  0.35837535    -0.91240
O74         O  0.43839168  0.23097267  0.40628483    -0.77200
O75         O  0.44944240  0.28991501  0.36132158    -0.86700
O76         O  0.39125668  0.25724325  0.40703363    -0.86390
O77         O  0.41083277  0.31842439  0.32581008    -0.73140
O78         O  0.35846916  0.28740021  0.36801495    -0.85280
Zr79       Zr  0.44312826  0.37341382  0.42452235     2.26420
Zr80       Zr  0.47080188  0.34815971  0.34203516     2.06270
Zr81       Zr  0.36134817  0.28506739  0.42921640     2.10050
Zr82       Zr  0.45080966  0.28807750  0.42243207     1.78760
O83         O  0.30350866  0.27528607  0.44129411    -0.94080
O84         O  0.00734644  0.29504422  0.40879159    -0.41890
O85         O  0.42091831  0.31561585  0.44605028    -0.78520
O86         O  0.47426653  0.34625639  0.40310578    -0.97210
O87         O  0.44099573  0.37616184  0.36379644    -0.90510
O88         O  0.38331557  0.34306241  0.40934582    -0.93360
C89         C  0.42198374  0.21001263  0.38184186     1.00400
C90         C  0.30915137  0.20956825  0.38219103     1.13330
C91         C  0.44040584  0.29292733  0.27231307     1.04110
O92         O  0.02354061  0.34517348  0.33489640    -0.95510
O93         O  0.01813636  0.40321847  0.36151107    -0.91250
O94         O  0.00147030  0.41970211  0.40987316    -0.84400
C95         C  0.02358991  0.42434491  0.38626840     1.10750
O96         O  0.33872901  0.31906137  0.30330130    -0.97480
Zr97       Zr  0.38137330  0.34609376  0.34900747     1.88940
O98         O  0.43520575  0.42204435  0.41098317    -0.74130
O99         O  0.48651986  0.39195924  0.29759337    -0.53390
O100        O  0.40027610  0.37921118  0.29584810    -0.98070
O101        O  0.32641661  0.34226726  0.36404595    -0.55290
O102        O  0.39958040  0.40569331  0.36457321    -0.74650
C103        C  0.41865603  0.42783080  0.38743186     0.97690
O104        O  0.47868639  0.39519533  0.47546546    -0.63470
O105        O  0.35816623  0.24895986  0.47757085    -0.58270
O106        O  0.41029727  0.37328164  0.47478053    -0.94960
O107        O  0.36098429  0.32056560  0.47706988    -0.93380
O108        O  0.43143783  0.25376603  0.47478992    -0.93740
O109        O  0.49242529  0.31300141  0.46901608    -0.92520
C110        C  0.38118793  0.35138293  0.48857836     1.16540
H111        H  0.38023449  0.23351482  0.41487859     0.32480
H112        H  0.49813527  0.35884037  0.41048935     0.43330
H113        H  0.37102980  0.35363361  0.41936654     0.36860
H114        H  0.40793458  0.31919472  0.30138814     0.33340
H115        H  0.00876364  0.27716323  0.42264017     0.25130
H116        H  0.50526876  0.39143680  0.28445779     0.31060
H117        H  0.38948232  0.39397666  0.29600895     0.36970
H118        H  0.44487443  0.24156913  0.47585964     0.31430
H119        H  0.34561329  0.25391544  0.49560804     0.30310
H120        H  0.29565982  0.25993732  0.46165002     0.31990
H121        H  0.33262376  0.36305951  0.37812451     0.30960
H122        H  0.99977934  0.33795580  0.46891767     0.34960
H123        H  0.46760273  0.37548386  0.49165930     0.27690
H124        H  0.35928264  0.21078949  0.29079065     0.31920
H125        H  0.33140848  0.33601137  0.29715533     0.34770
H126        H  0.34166529  0.22495392  0.47021336     0.27390
H127        H  0.00048662  0.39591070  0.46892144     0.40260
H128        H  0.01553100  0.32116725  0.32718211     0.30310
H129        H  0.50524925  0.28679167  0.38487169     0.37930
H130        H  0.31537800  0.32265687  0.38036053     0.29780
H131        H  0.46646363  0.38228190  0.28176025     0.29840
H132        H  0.34694113  0.23805909  0.28581672     0.30110
Zr133      Zr  0.22563039  0.09443554  0.34586400     2.17510
O134        O  0.26301759  0.09020736  0.30270487    -0.52250
O135        O  0.27001421  0.15465993  0.35771650    -0.75450
O136        O  0.21740252  0.11076037  0.28793275    -0.82240
O137        O  0.25564408  0.04937057  0.40751919    -0.83980
O138        O  0.16528914  0.10853219  0.28683131    -0.79610
O139        O  0.27100903  0.08122524  0.35842652    -0.91240
O140        O  0.25471744  0.17250058  0.40582545    -0.77200
O141        O  0.19593656  0.12445229  0.36123191    -0.86700
O142        O  0.22856964  0.09889195  0.40691308    -0.86390
O143        O  0.16732425  0.05733520  0.32575072    -0.73140
O144        O  0.19832324  0.03593172  0.36791097    -0.85280
Zr145      Zr  0.11242775  0.03468709  0.42449974     2.26420
Zr146      Zr  0.13765508  0.08761455  0.34201472     2.06270
Zr147      Zr  0.20072211  0.04116076  0.42910671     2.10050
Zr148      Zr  0.19781954  0.12766839  0.42233147     1.78760
O149        O  0.21026906  0.49288960  0.44079343    -0.94080
O150        O  0.19037036  0.17701906  0.40908008    -0.41890
O151        O  0.17025848  0.07024470  0.44597243    -0.78520
O152        O  0.13961100  0.09299194  0.40308355    -0.97210
O153        O  0.10960810  0.02979887  0.36377676    -0.90510
O154        O  0.14269907  0.00517014  0.40927622    -0.93360
C155        C  0.27574554  0.17696479  0.38148608     1.00400
C156        C  0.27635194  0.06467977  0.38228281     1.13330
C157        C  0.19288745  0.11249709  0.27229649     1.04110
O158        O  0.14066669  0.14335371  0.33488097    -0.95510
O159        O  0.08262807  0.07992697  0.36152159    -0.91250
O160        O  0.06615052  0.04674994  0.40986669    -0.84400
C161        C  0.06150529  0.06423750  0.38627660     1.10750
O162        O  0.16646502  0.48451496  0.30313597    -0.97480
Zr163      Zr  0.13960219  0.00019665  0.34893876     1.88940
O164        O  0.06373791  0.47814262  0.41103816    -0.74130
O165        O  0.09384807  0.05954827  0.29757041    -0.53390
O166        O  0.10635214  0.48605173  0.29586321    -0.98070
O167        O  0.14335597  0.44900169  0.36385491    -0.55290
O168        O  0.08002948  0.45884957  0.36460916    -0.74650
C169        C  0.05792125  0.45579814  0.38748837     0.97690
O170        O  0.09070038  0.04844474  0.47547445    -0.63470
O171        O  0.23674794  0.07385650  0.47760525    -0.58270
O172        O  0.11258338  0.00199327  0.47475307    -0.94960
O173        O  0.16528250  0.00537087  0.47699277    -0.93380
O174        O  0.23279977  0.14295257  0.47425921    -0.93740
O175        O  0.17309176  0.14405810  0.46929981    -0.92520
C176        C  0.13448443  0.99477595  0.48852526     1.16540
H177        H  0.25230473  0.11161525  0.41473940     0.32480
H178        H  0.12706189  0.10429861  0.41050172     0.43330
H179        H  0.13211340  0.48230856  0.41929317     0.36860
H180        H  0.16654067  0.05368264  0.30132468     0.33340
H181        H  0.20840002  0.19640943  0.42272722     0.25130
H182        H  0.09435761  0.07882938  0.28446355     0.31060
H183        H  0.09152207  0.46049517  0.29603585     0.36970
H184        H  0.24471670  0.16857716  0.47537980     0.31430
H185        H  0.23241663  0.05615788  0.49524204     0.30310
H186        H  0.22554488  0.50018777  0.46120132     0.31990
H187        H  0.12239173  0.43425399  0.37765090     0.30960
H188        H  0.14826682  0.12606957  0.46960720     0.34960
H189        H  0.11048629  0.05719761  0.49158859     0.27690
H190        H  0.27464076  0.11268482  0.29045461     0.31920
H191        H  0.14943104  0.46027755  0.29694740     0.34770
H192        H  0.26082806  0.08214460  0.46995474     0.27390
H193        H  0.08985232  0.06945306  0.46890314     0.40260
H194        H  0.16462789  0.15931586  0.32702096     0.30310
H195        H  0.19825930  0.18311741  0.38505579     0.37930
H196        H  0.16275352  0.45746106  0.38041660     0.29780
H197        H  0.10352947  0.04919724  0.28171276     0.29840
H198        H  0.24710559  0.07310571  0.28576002     0.30110
Zr199      Zr  0.11501229  0.37290216  0.66215957     2.17510
O200        O  0.15656195  0.37686221  0.70527154    -0.52250
O201        O  0.09915609  0.31268995  0.65023925    -0.75450
O202        O  0.09049298  0.35661016  0.72012096    -0.82240
O203        O  0.19007852  0.41802895  0.60043003    -0.83980
O204        O  0.04051526  0.35866093  0.72121252    -0.79610
O205        O  0.17365268  0.38628023  0.64959044    -0.91240
O206        O  0.06627109  0.29498103  0.60195531    -0.77200
O207        O  0.05529501  0.34288583  0.64680382    -0.86700
O208        O  0.11347076  0.36848640  0.60110089    -0.86390
O209        O  0.09381158  0.40997521  0.68233828    -0.73140
O210        O  0.14619439  0.43142021  0.64014702    -0.85280
Zr211      Zr  0.06147630  0.43264928  0.58363340     2.26420
Zr212      Zr  0.03385063  0.37969175  0.66608713     2.06270
Zr213      Zr  0.14333474  0.42624252  0.57894741     2.10050
Zr214      Zr  0.05392162  0.33968508  0.58570161     1.78760
O215        O  0.20112375  0.47468461  0.56746267    -0.94080
O216        O  0.99734183  0.29012586  0.59926587    -0.41890
O217        O  0.08376207  0.39713314  0.56210751    -0.78520
O218        O  0.03038762  0.37433255  0.60501748    -0.97210
O219        O  0.06359386  0.43752033  0.64435863    -0.90510
O220        O  0.12128371  0.46218536  0.59883650    -0.93360
C221        C  0.08271995  0.29045609  0.62637266     1.00400
C222        C  0.19551329  0.40278258  0.62569864     1.13330
C223        C  0.06419379  0.35477669  0.73575172     1.04110
O224        O  0.48109225  0.32397333  0.67325477    -0.95510
O225        O  0.48644265  0.38730219  0.64668175    -0.91250
O226        O  0.00311602  0.42050090  0.59835119    -0.84400
C227        C  0.48098897  0.40298844  0.62194283     1.10750
O228        O  0.16576537  0.48276622  0.70497469    -0.97480
Zr229      Zr  0.12320934  0.46712697  0.65917875     1.88940
O230        O  0.06940417  0.48921025  0.59711859    -0.74130
O231        O  0.01828066  0.40784024  0.71058269    -0.53390
O232        O  0.10405217  0.48119526  0.71225716    -0.98070
O233        O  0.17821539  0.01832927  0.64437750    -0.55290
O234        O  0.10506392  0.00852774  0.64350223    -0.74650
C235        C  0.08599067  0.01157624  0.62063825     0.97690
O236        O  0.02590015  0.41891013  0.53270766    -0.63470
O237        O  0.14680327  0.39374097  0.53034973    -0.58270
O238        O  0.09429552  0.46536037  0.53336928    -0.94960
O239        O  0.14362985  0.46201121  0.53107316    -0.93380
O240        O  0.07341830  0.32473305  0.53343891    -0.93740
O241        O  0.01238356  0.32300750  0.53905503    -0.92520
C242        C  0.12340858  0.47259336  0.51957023     1.16540
H243        H  0.12450072  0.35579437  0.59324576     0.32480
H244        H  0.00652072  0.36301765  0.59762296     0.43330
H245        H  0.13355561  0.48505624  0.58883358     0.36860
H246        H  0.09668486  0.41361516  0.70676575     0.33340
H247        H  0.49595243  0.27080812  0.58547226     0.25130
H248        H  0.99943606  0.38858321  0.72365027     0.31060
H249        H  0.11476663  0.00674914  0.71210852     0.36970
H250        H  0.05995738  0.29909665  0.53235803     0.31430
H251        H  0.16048254  0.41153780  0.51289961     0.30310
H252        H  0.20917957  0.46752143  0.54701921     0.31990
H253        H  0.17201771  0.03330359  0.63095182     0.30960
H254        H  0.50553018  0.34097973  0.53874483     0.34960
H255        H  0.03696109  0.41026903  0.51650481     0.27690
H256        H  0.14564849  0.35432708  0.71741898     0.31920
H257        H  0.17288031  0.00695262  0.71128065     0.34770
H258        H  0.16233391  0.38517113  0.53809815     0.27390
H259        H  0.50408492  0.39783462  0.53925041     0.40260
H260        H  0.48909513  0.30794305  0.68086364     0.30310
H261        H  0.99937618  0.28399776  0.62321341     0.37930
H262        H  0.18897820  0.00998056  0.62749567     0.29780
H263        H  0.03830137  0.41807495  0.72646271     0.29840
H264        H  0.15778722  0.39390318  0.72231079     0.30110
Zr265      Zr  0.11320758  0.20712868  0.66219330     2.17510
O266        O  0.10880979  0.24442692  0.70534256    -0.52250
O267        O  0.17342306  0.25155800  0.65041837    -0.75450
O268        O  0.12953836  0.19893862  0.72014103    -0.82240
O269        O  0.06817230  0.23711318  0.60047706    -0.83980
O270        O  0.12735877  0.14684783  0.72126320    -0.79610
O271        O  0.10002183  0.25250107  0.64958030    -0.91240
O272        O  0.19125431  0.23630618  0.60227500    -0.77200
O273        O  0.14328821  0.17749906  0.64683587    -0.86700
O274        O  0.11765033  0.21005948  0.60113797    -0.86390
O275        O  0.07616202  0.14882295  0.68231159    -0.73140
O276        O  0.05471071  0.17978008  0.64011584    -0.85280
Zr277      Zr  0.05355434  0.09391146  0.58356723     2.26420
Zr278      Zr  0.10650345  0.11921405  0.66606113     2.06270
Zr279      Zr  0.05992005  0.18215224  0.57891351     2.10050
Zr280      Zr  0.14649361  0.17937486  0.58573635     1.78760
O281        O  0.01164483  0.19170125  0.56724995    -0.94080
O282        O  0.19591542  0.17204910  0.59901089    -0.41890
O283        O  0.08906725  0.15174296  0.56208038    -0.78520
O284        O  0.11186362  0.12115843  0.60499249    -0.97210
O285        O  0.04868728  0.09112251  0.64429288    -0.90510
O286        O  0.02399089  0.12413838  0.59877766    -0.93360
C287        C  0.19572071  0.25731509  0.62663852     1.00400
C288        C  0.08348456  0.25783434  0.62571072     1.13330
C289        C  0.13128802  0.17443678  0.73579161     1.04110
O290        O  0.16230887  0.12235760  0.67313922    -0.95510
O291        O  0.09883299  0.06418210  0.64658615    -0.91250
O292        O  0.06565281  0.04766811  0.59823721    -0.84400
C293        C  0.08314339  0.04304218  0.62184037     1.10750
O294        O  0.00335339  0.14794501  0.70490786    -0.97480
Zr295      Zr  0.01903091  0.12106776  0.65911376     1.88940
O296        O  0.99703566  0.04517830  0.59704303    -0.74130
O297        O  0.07854208  0.07540425  0.71051696    -0.53390
O298        O  0.00486410  0.08783384  0.71219596    -0.98070
O299        O  0.46781615  0.12477377  0.64415823    -0.55290
O300        O  0.47772897  0.06148632  0.64345104    -0.74650
C301        C  0.47468893  0.03936724  0.62058875     0.97690
O302        O  0.06751189  0.07233900  0.53261090    -0.63470
O303        O  0.09254232  0.21808752  0.53034433    -0.58270
O304        O  0.02074538  0.09391725  0.53333232    -0.94960
O305        O  0.02404200  0.14658165  0.53108780    -0.93380
O306        O  0.16170650  0.21432321  0.53379380    -0.93740
O307        O  0.16302191  0.15475514  0.53877638    -0.92520
C308        C  0.01345499  0.11577204  0.51956957     1.16540
H309        H  0.13035497  0.23379454  0.59331075     0.32480
H310        H  0.12318748  0.10862228  0.59758674     0.43330
H311        H  0.00112243  0.11352313  0.58876923     0.36860
H312        H  0.07250025  0.14803723  0.70673557     0.33340
H313        H  0.21529040  0.19010279  0.58537021     0.25130
H314        H  0.09785247  0.07601410  0.72366035     0.31060
H315        H  0.47930583  0.07302088  0.71202271     0.36970
H316        H  0.18733673  0.22634203  0.53271128     0.31430
H317        H  0.07481101  0.21376597  0.51274703     0.30310
H318        H  0.01891258  0.20693191  0.54681087     0.31990
H319        H  0.45318074  0.10390857  0.63018829     0.30960
H320        H  0.14543946  0.12979263  0.53883266     0.34960
H321        H  0.07620763  0.09212694  0.51650554     0.27690
H322        H  0.13126552  0.25608290  0.71763192     0.31920
H323        H  0.47909766  0.13093641  0.71105777     0.34770
H324        H  0.10088871  0.24218446  0.53797795     0.27390
H325        H  0.08857113  0.07160132  0.53921576     0.40260
H326        H  0.17821622  0.14629941  0.68108983     0.30310
H327        H  0.20199702  0.17994454  0.62303652     0.37930
H328        H  0.47631263  0.14430124  0.62775096     0.29780
H329        H  0.06809875  0.08501918  0.72634026     0.29840
H330        H  0.09169983  0.22847609  0.72225686     0.30110
Zr331      Zr  0.39143527  0.09618632  0.34596392     2.17510
O332        O  0.39571258  0.13787527  0.30286232    -0.52250
O333        O  0.33121863  0.08035710  0.35777640    -0.75450
O334        O  0.37510873  0.07173457  0.28799211    -0.82240
O335        O  0.43643417  0.17116937  0.40777463    -0.83980
O336        O  0.37734039  0.02185291  0.28681648    -0.79610
O337        O  0.40469611  0.15476819  0.35860355    -0.91240
O338        O  0.31347297  0.04742271  0.40602323    -0.77200
O339        O  0.36139740  0.03644739  0.36124528    -0.86700
O340        O  0.38695340  0.09458981  0.40701813    -0.86390
O341        O  0.42850988  0.07498797  0.32579181    -0.73140
O342        O  0.44992462  0.12734548  0.36804981    -0.85280
Zr343      Zr  0.45114519  0.04263948  0.42451438     2.26420
Zr344      Zr  0.39821777  0.01501194  0.34198967     2.06270
Zr345      Zr  0.44468497  0.12444204  0.42924407     2.10050
Zr346      Zr  0.35813666  0.03502221  0.42234095     1.78760
O347        O  0.49297817  0.18228043  0.44087336    -0.94080
O348        O  0.30861523  0.47845585  0.40863084    -0.41890
O349        O  0.41556324  0.06485583  0.44602181    -0.78520
O350        O  0.39284344  0.01154234  0.40305958    -0.97210
O351        O  0.45602648  0.04476132  0.36378554    -0.90510
O352        O  0.48067102  0.10244793  0.40933470    -0.93360
C353        C  0.30896772  0.06390059  0.38161874     1.00400
C354        C  0.42118749  0.17661291  0.38251039     1.13330
C355        C  0.37337124  0.04550189  0.27231583     1.04110
O356        O  0.34243850  0.46231336  0.33485174    -0.95510
O357        O  0.40588073  0.46763111  0.36143682    -0.91250
O358        O  0.43902798  0.48428606  0.40981000    -0.84400
C359        C  0.42154310  0.46216757  0.38619930     1.10750
O360        O  0.50123673  0.14695793  0.30323224    -0.97480
Zr361      Zr  0.48563723  0.10437751  0.34899285     1.88940
O362        O  0.50768610  0.05051255  0.41103013    -0.74130
O363        O  0.42620415  0.99924601  0.29749487    -0.53390
O364        O  0.49963787  0.08515776  0.29591505    -0.98070
O365        O  0.03690520  0.15937262  0.36369710    -0.55290
O366        O  0.02700220  0.08618371  0.36466008    -0.74650
C367        C  0.03004617  0.06709526  0.38750761     0.97690
O368        O  0.43725243  0.50706516  0.47543360    -0.63470
O369        O  0.41207648  0.12769301  0.47785509    -0.58270
O370        O  0.48393477  0.07549702  0.47476867    -0.94960
O371        O  0.48056786  0.12482126  0.47706459    -0.93380
O372        O  0.34307207  0.05439808  0.47461547    -0.93740
O373        O  0.34131265  0.99338304  0.46890880    -0.92520
C374        C  0.49119090  0.10462822  0.48855704     1.16540
H375        H  0.37424815  0.10560719  0.41486929     0.32480
H376        H  0.38152978  0.48767175  0.41043632     0.43330
H377        H  0.50354497  0.11472732  0.41933261     0.36860
H378        H  0.43216867  0.07789165  0.30136897     0.33340
H379        H  0.28926271  0.47703883  0.42238286     0.25130
H380        H  0.40689526  0.48049822  0.28437751     0.31060
H381        H  0.02519065  0.09585739  0.29604685     0.36970
H382        H  0.31743127  0.04097183  0.47561210     0.31430
H383        H  0.42983516  0.14129918  0.49536450     0.30310
H384        H  0.48574395  0.19024292  0.46133533     0.31990
H385        H  0.05210521  0.15315067  0.37668384     0.30960
H386        H  0.35916333  0.48636897  0.46912468     0.34960
H387        H  0.42861845  0.01816815  0.49159307     0.27690
H388        H  0.37320734  0.12707570  0.29066301     0.31920
H389        H  0.02536140  0.15395325  0.29678955     0.34770
H390        H  0.40352128  0.14325469  0.47017051     0.27390
H391        H  0.41616243  0.48527985  0.46884946     0.40260
H392        H  0.32651794  0.47033324  0.32691966     0.30310
H393        H  0.30253972  0.48052503  0.38467237     0.37930
H394        H  0.02871956  0.16995698  0.38095069     0.29780
H395        H  0.43657061  0.01929115  0.28164987     0.29840
H396        H  0.41274875  0.13902106  0.28586340     0.30110
Zr397      Zr  0.39172340  0.42472953  0.92613052     2.17510
O398        O  0.41700686  0.46031509  0.97670650    -0.52250
O399        O  0.43995179  0.41566834  0.91364612    -0.75450
O400        O  0.38985795  0.39026596  0.97550843    -0.82240
O401        O  0.42098484  0.50098942  0.86546380    -0.83980
O402        O  0.33753142  0.34057880  0.97680044    -0.79610
O403        O  0.43703066  0.48405482  0.91390071    -0.91240
O404        O  0.42310861  0.37837531  0.86859508    -0.77200
O405        O  0.36134121  0.36505927  0.91073933    -0.86700
O406        O  0.39537610  0.42335350  0.86532481    -0.86390
O407        O  0.33362837  0.40267116  0.94699161    -0.73140
O408        O  0.36523272  0.45632059  0.90431675    -0.85280
Zr409      Zr  0.27938505  0.37142757  0.84622984     2.26420
Zr410      Zr  0.30296962  0.34312111  0.92958597     2.06270
Zr411      Zr  0.36763568  0.45339203  0.84346180     2.10050
Zr412      Zr  0.36524684  0.36371743  0.85028902     1.78760
O413        O  0.36113422  0.50407040  0.83572799    -0.94080
O414        O  0.35864331  0.30755592  0.86494724    -0.41890
O415        O  0.33791757  0.39379478  0.82727744    -0.78520
O416        O  0.30624683  0.33998973  0.86846456    -0.97210
O417        O  0.27598110  0.37348523  0.90710925    -0.90510
O418        O  0.30928569  0.43115712  0.86177998    -0.93360
C419        C  0.44526055  0.39775166  0.89126556     1.00400
C420        C  0.44171451  0.00639077  0.89054005     1.13330
C421        C  0.36810767  0.36080487  0.98864613     1.04110
O422        O  0.29203872  0.28466686  0.94020161    -0.95510
O423        O  0.24698733  0.29742141  0.90888981    -0.91250
O424        O  0.23096682  0.31497533  0.86093849    -0.84400
C425        C  0.22577357  0.29268545  0.88431923     1.10750
O426        O  0.33664688  0.47751409  0.96623638    -0.97480
Zr427      Zr  0.30673403  0.43299546  0.92281801     1.88940
O428        O  0.23320272  0.38440246  0.85870332    -0.74130
O429        O  0.26709779  0.33995049  0.97813839    -0.53390
O430        O  0.27460507  0.41488802  0.97654511    -0.98070
O431        O  0.30845317  0.48744282  0.90941584    -0.55290
O432        O  0.24802310  0.41633507  0.90776236    -0.74650
C433        C  0.22692585  0.39967963  0.88341546     0.97690
O434        O  0.25534796  0.33303819  0.79648450    -0.63470
O435        O  0.41106040  0.47184932  0.79815012    -0.58270
O436        O  0.28586201  0.39792336  0.78968929    -0.94960
O437        O  0.34107103  0.44344183  0.78752327    -0.93380
O438        O  0.40033426  0.38299655  0.79840944    -0.93740
O439        O  0.34176869  0.32345850  0.80230555    -0.92520
C440        C  0.31204749  0.42199742  0.77354543     1.16540
H441        H  0.41914940  0.43467160  0.85762547     0.32480
H442        H  0.29351522  0.31613312  0.86102675     0.43330
H443        H  0.29888243  0.44306885  0.85062331     0.36860
H444        H  0.33383954  0.40435407  0.97169661     0.33340
H445        H  0.37698649  0.30636881  0.85171181     0.25130
H446        H  0.25223968  0.31482848  0.98260533     0.31060
H447        H  0.26115459  0.42708164  0.97720626     0.36970
H448        H  0.41383355  0.37084200  0.79862563     0.31430
H449        H  0.41803055  0.49634947  0.79362438     0.30310
H450        H  0.37844964  0.01806073  0.81801434     0.31990
H451        H  0.28801082  0.48584662  0.92118809     0.30960
H452        H  0.31663756  0.31534671  0.80236303     0.34960
H453        H  0.27569794  0.33868125  0.78189956     0.27690
H454        H  0.43527697  0.45534681  0.98436047     0.31920
H455        H  0.32000305  0.48490177  0.97336178     0.34770
H456        H  0.43170389  0.47289426  0.80885706     0.27390
H457        H  0.24799313  0.30922624  0.80433286     0.40260
H458        H  0.30430276  0.28028685  0.92141942     0.30310
H459        H  0.36636231  0.30987903  0.88909461     0.37930
H460        H  0.30292538  0.48654806  0.88475425     0.29780
H461        H  0.28313562  0.34869337  0.99793638     0.29840
H462        H  0.39872109  0.44989479  0.99446738     0.30110
Zr463      Zr  0.44311196  0.37310679  0.08197900     2.17510
O464        O  0.47877243  0.39830641  0.03143227    -0.52250
O465        O  0.43413416  0.42139256  0.09437230    -0.75450
O466        O  0.40872157  0.37132912  0.03258370    -0.82240
O467        O  0.01934028  0.40227369  0.14273145    -0.83980
O468        O  0.35897313  0.31904988  0.03128527    -0.79610
O469        O  0.00244450  0.41835177  0.09428797    -0.91240
O470        O  0.39682625  0.40457605  0.13940539    -0.77200
O471        O  0.38342837  0.34278302  0.09733271    -0.86700
O472        O  0.44170209  0.37676114  0.14278323    -0.86390
O473        O  0.42095924  0.31500645  0.06109674    -0.73140
O474        O  0.47463761  0.34656966  0.10382517    -0.85280
Zr475      Zr  0.38969140  0.26075487  0.16183907     2.26420
Zr476      Zr  0.36140319  0.28439614  0.07848762     2.06270
Zr477      Zr  0.47166727  0.34895955  0.16468285     2.10050
Zr478      Zr  0.38206032  0.34668703  0.15777507     1.78760
O479        O  0.02235771  0.34250055  0.17252389    -0.94080
O480        O  0.32594774  0.34016599  0.14303737    -0.41890
O481        O  0.41206353  0.31928431  0.18082757    -0.78520
O482        O  0.35829655  0.28767202  0.13960800    -0.97210
O483        O  0.39173980  0.25737339  0.10095605    -0.90510
O484        O  0.44941564  0.29062374  0.14630287    -0.93360
C485        C  0.41622090  0.42672023  0.11673500     1.00400
C486        C  0.02476602  0.42300771  0.11765347     1.13330
C487        C  0.37924763  0.34961934  0.01944285     1.04110
O488        O  0.30297314  0.27359757  0.06800775    -0.95510
O489        O  0.31571998  0.22837332  0.09917306    -0.91250
O490        O  0.33328164  0.21232493  0.14710421    -0.84400
C491        C  0.31099468  0.20713942  0.12372478     1.10750
O492        O  0.49562536  0.31795741  0.04171248    -0.97480
Zr493      Zr  0.45125120  0.28808639  0.08526025     1.88940
O494        O  0.40268126  0.21456687  0.14935239    -0.74130
O495        O  0.35806818  0.24852122  0.02987024    -0.53390
O496        O  0.43304553  0.25585276  0.03159278    -0.98070
O497        O  0.00574753  0.28988785  0.09859560    -0.55290
O498        O  0.43466816  0.22941225  0.10033208    -0.74650
C499        C  0.41800242  0.20830892  0.12466479     0.97690
O500        O  0.35114619  0.23671675  0.21147229    -0.63470
O501        O  0.48997917  0.39236513  0.21000444    -0.58270
O502        O  0.41616065  0.26712737  0.21838103    -0.94960
O503        O  0.46172942  0.32230492  0.22057906    -0.93380
O504        O  0.40130281  0.38177713  0.20965866    -0.93740
O505        O  0.34174237  0.32326859  0.20571449    -0.92520
C506        C  0.44027318  0.29327494  0.23453688     1.16540
H507        H  0.45303606  0.40053625  0.15048142     0.32480
H508        H  0.33443888  0.27494946  0.14704092     0.43330
H509        H  0.46131915  0.28020455  0.15744638     0.36860
H510        H  0.42264402  0.31521984  0.03639201     0.33340
H511        H  0.32474843  0.35848394  0.15630903     0.25130
H512        H  0.33293962  0.23383528  0.02532471     0.31060
H513        H  0.44529912  0.24246134  0.03089692     0.36970
H514        H  0.38921042  0.39533587  0.20938210     0.31430
H515        H  0.51442921  0.39924465  0.21469200     0.30310
H516        H  0.03621096  0.35968100  0.19039906     0.31990
H517        H  0.00413029  0.26940506  0.08688970     0.30960
H518        H  0.33350796  0.29811151  0.20560050     0.34960
H519        H  0.35696295  0.25701122  0.22621444     0.27690
H520        H  0.47386655  0.41661096  0.02375110     0.31920
H521        H  0.50307290  0.30134672  0.03463587     0.34770
H522        H  0.49117560  0.41305611  0.19924528     0.27390
H523        H  0.32741986  0.22968159  0.20358088     0.40260
H524        H  0.29866103  0.28587549  0.08682579     0.30310
H525        H  0.32832783  0.34795036  0.11890919     0.37930
H526        H  0.00491796  0.28445772  0.12327676     0.29780
H527        H  0.36697445  0.26460408  0.01011710     0.29840
H528        H  0.46833455  0.38001780  0.01367365     0.30110
Zr529      Zr  0.11258484  0.03513712  0.08197650     2.17510
O530        O  0.08753167  0.04572277  0.03140097    -0.52250
O531        O  0.06424843  0.47788767  0.09434079    -0.75450
O532        O  0.11426911  0.00245413  0.03260229    -0.82240
O533        O  0.08343952  0.08217586  0.14275459    -0.83980
O534        O  0.16654361  0.00498992  0.03130792    -0.79610
O535        O  0.06734690  0.04921711  0.09429587    -0.91240
O536        O  0.08109022  0.45733809  0.13930368    -0.77200
O537        O  0.14285841  0.00573159  0.09732032    -0.86700
O538        O  0.10892248  0.03005254  0.14277663    -0.86390
O539        O  0.17069319  0.07106383  0.06111750    -0.73140
O540        O  0.13917228  0.09320204  0.10383980    -0.85280
Zr541      Zr  0.22494219  0.09394981  0.16184418     2.26420
Zr542      Zr  0.20125305  0.04206303  0.07848558     2.06270
Zr543      Zr  0.13677115  0.08781781  0.16469977     2.10050
Zr544      Zr  0.13894438  0.00043903  0.15775871     1.78760
O545        O  0.14319507  0.14494314  0.17264065    -0.94080
O546        O  0.14543640  0.45082205  0.14310471    -0.41890
O547        O  0.16639972  0.05784226  0.18083000    -0.78520
O548        O  0.19796774  0.03563852  0.13959819    -0.97210
O549        O  0.22833570  0.09942400  0.10097177    -0.90510
O550        O  0.19513358  0.12387249  0.14634599    -0.93360
C551        C  0.05893556  0.45461884  0.11666511     1.00400
C552        C  0.06269684  0.06687499  0.11767158     1.13330
C553        C  0.13597262  0.99468576  0.01947037     1.04110
O554        O  0.21195525  0.49438267  0.06803794    -0.95510
O555        O  0.25730324  0.05241794  0.09910687    -0.91250
O556        O  0.27335204  0.08596043  0.14708912    -0.84400
C557        C  0.27854231  0.06890172  0.12366833     1.10750
O558        O  0.16823570  0.14305090  0.04154249    -0.97480
Zr559      Zr  0.19767190  0.12827255  0.08531220     1.88940
O560        O  0.27119746  0.15312084  0.14944749    -0.74130
O561        O  0.23709125  0.07452603  0.02981818    -0.53390
O562        O  0.23012516  0.14237180  0.03177916    -0.98070
O563        O  0.19549605  0.18077594  0.09861970    -0.55290
O564        O  0.25630027  0.17036827  0.10053387    -0.74650
C565        C  0.27742943  0.17475462  0.12482127     0.97690
O566        O  0.24890128  0.07928086  0.21141984    -0.63470
O567        O  0.09338797  0.06269494  0.21003457    -0.58270
O568        O  0.21866391  0.11410588  0.21836208    -0.94960
O569        O  0.16348887  0.10448681  0.22058360    -0.93380
O570        O  0.10371625  0.48456394  0.20954675    -0.93740
O571        O  0.16228100  0.48354141  0.20575666    -0.92520
C572        C  0.19252434  0.11205638  0.23452777     1.16540
H573        H  0.08514560  0.01761688  0.15046745     0.32480
H574        H  0.21066637  0.02447884  0.14702557     0.43330
H575        H  0.20558944  0.14619844  0.15749498     0.36860
H576        H  0.17048513  0.07255153  0.03641385     0.33340
H577        H  0.12707843  0.43130728  0.15634918     0.25130
H578        H  0.25165272  0.06396547  0.02519076     0.31060
H579        H  0.24361090  0.16802022  0.03116441     0.36970
H580        H  0.09017679  0.45890781  0.20926995     0.31430
H581        H  0.08649748  0.08025399  0.21472828     0.30310
H582        H  0.12616643  0.14162242  0.19067935     0.31990
H583        H  0.21667984  0.19991283  0.08811888     0.30960
H584        H  0.18732754  0.50086222  0.20605999     0.34960
H585        H  0.22861145  0.06492227  0.22621030     0.27690
H586        H  0.06918519  0.02253233  0.02370604     0.31920
H587        H  0.18490266  0.16718336  0.03471407     0.34770
H588        H  0.07269789  0.04318778  0.19928018     0.27390
H589        H  0.25574499  0.06245616  0.20349615     0.40260
H590        H  0.19946520  0.47769690  0.08672786     0.30310
H591        H  0.13770020  0.44542597  0.11896178     0.37930
H592        H  0.19944259  0.18459768  0.12357765     0.29780
H593        H  0.22096406  0.06743868  0.01010583     0.29840
H594        H  0.10583585  0.05352855  0.01366577     0.30110
Zr595      Zr  0.06100718  0.43197027  0.92608398     2.17510
O596        O  0.02524374  0.42134472  0.97657757    -0.52250
O597        O  0.07001746  0.48927123  0.91371676    -0.75450
O598        O  0.09532739  0.46457966  0.97553189    -0.82240
O599        O  0.48487954  0.38500753  0.86518909    -0.83980
O600        O  0.14507673  0.46206705  0.97685949    -0.79610
O601        O  0.00170838  0.41790198  0.91369126    -0.91240
O602        O  0.10740318  0.00981874  0.86874336    -0.77200
O603        O  0.12070538  0.46137921  0.91080587    -0.86700
O604        O  0.06248186  0.43707039  0.86527965    -0.86390
O605        O  0.08314413  0.39601386  0.94697040    -0.73140
O606        O  0.02954357  0.37390459  0.90418616    -0.85280
Zr607      Zr  0.11464396  0.37322649  0.84627706     2.26420
Zr608      Zr  0.14272984  0.42503162  0.92967693     2.06270
Zr609      Zr  0.03257065  0.37930597  0.84333473     2.10050
Zr610      Zr  0.12214595  0.46670597  0.85036507     1.78760
O611        O  0.48197424  0.32205489  0.83560206    -0.94080
O612        O  0.17824283  0.01631989  0.86513377    -0.41890
O613        O  0.09220289  0.40931551  0.82727418    -0.78520
O614        O  0.14595100  0.43151437  0.86856984    -0.97210
O615        O  0.11248877  0.36768565  0.90714679    -0.90510
O616        O  0.05488376  0.34328008  0.86170245    -0.93360
C617        C  0.08798510  0.01254892  0.89138911     1.00400
C618        C  0.47942191  0.40028437  0.89028131     1.13330
C619        C  0.12479838  0.47235249  0.98868583     1.04110
O620        O  0.20111069  0.47268969  0.94034260    -0.95510
O621        O  0.18854965  0.41487789  0.90908988    -0.91250
O622        O  0.17108147  0.38133794  0.86110692    -0.84400
C623        C  0.19333492  0.39843463  0.88451857     1.10750
O624        O  0.00832351  0.32401512  0.96606904    -0.97480
Zr625      Zr  0.05294433  0.33881461  0.92273103     1.88940
O626        O  0.10169782  0.31404898  0.85864577    -0.74130
O627        O  0.14595315  0.39241937  0.97828475    -0.53390
O628        O  0.07108243  0.32482684  0.97645860    -0.98070
O629        O  0.99859389  0.28600418  0.90922956    -0.55290
O630        O  0.06964974  0.29682624  0.90762415    -0.74650
C631        C  0.08635177  0.29243376  0.88329966     0.97690
O632        O  0.15326355  0.38788361  0.79668826    -0.63470
O633        O  0.01409938  0.40413568  0.79790639    -0.58270
O634        O  0.08831225  0.35313128  0.78971055    -0.94960
O635        O  0.04275214  0.36273863  0.78745076    -0.93380
O636        O  0.10289370  0.48258813  0.79851431    -0.93740
O637        O  0.16245040  0.48362539  0.80241399    -0.92520
C638        C  0.06423937  0.35519075  0.77352193     1.16540
H639        H  0.05114828  0.44950514  0.85757016     0.32480
H640        H  0.16982291  0.44269092  0.86117874     0.43330
H641        H  0.04302426  0.32097073  0.85052306     0.36860
H642        H  0.08141737  0.39451047  0.97167184     0.33340
H643        H  0.17944477  0.03583760  0.85186053     0.25130
H644        H  0.17107048  0.40287563  0.98289697     0.31060
H645        H  0.05901784  0.29918204  0.97705618     0.36970
H646        H  0.11501699  0.00824179  0.79878751     0.31430
H647        H  0.98953956  0.38667359  0.79353946     0.30310
H648        H  0.46829938  0.32520054  0.81739908     0.31990
H649        H  0.00010647  0.26721672  0.92122968     0.30960
H650        H  0.17089999  0.46687828  0.80268498     0.34960
H651        H  0.14745817  0.40238836  0.78197751     0.27690
H652        H  0.03012394  0.44453439  0.98430757     0.31920
H653        H  0.00112003  0.30005137  0.97329706     0.34770
H654        H  0.01325217  0.42388544  0.80849998     0.27390
H655        H  0.17697657  0.40456838  0.80462406     0.40260
H656        H  0.20536995  0.48943122  0.92169179     0.30310
H657        H  0.17584278  0.02171542  0.88925958     0.37930
H658        H  0.99967962  0.28125263  0.88463394     0.29780
H659        H  0.13698534  0.39955090  0.99801992     0.29840
H660        H  0.03565903  0.41346499  0.99432875     0.30110
Zr661      Zr  0.05390159  0.09419308  0.92615988     2.17510
O662        O  0.06460106  0.06925712  0.97675594    -0.52250
O663        O  0.99663035  0.04585533  0.91383606    -0.75450
O664        O  0.02119255  0.09588628  0.97552087    -0.82240
O665        O  0.10078890  0.06493704  0.86534081    -0.83980
O666        O  0.02370228  0.14814887  0.97678224    -0.79610
O667        O  0.06786950  0.04888046  0.91382284    -0.91240
O668        O  0.47606904  0.06269356  0.86887976    -0.77200
O669        O  0.02448318  0.12444339  0.91078912    -0.86700
O670        O  0.04881185  0.09050039  0.86535727    -0.86390
O671        O  0.08985160  0.15231734  0.94698313    -0.73140
O672        O  0.11196544  0.12078636  0.90427343    -0.85280
Zr673      Zr  0.11265375  0.20649866  0.84621130     2.26420
Zr674      Zr  0.06081793  0.18284046  0.92961214     2.06270
Zr675      Zr  0.10656696  0.11833856  0.84341404     2.10050
Zr676      Zr  0.01918412  0.12049788  0.85034812     1.78760
O677        O  0.16371770  0.12478032  0.83564239    -0.94080
O678        O  0.46957788  0.12705495  0.86488996    -0.41890
O679        O  0.07656994  0.14793996  0.82725287    -0.78520
O680        O  0.05436151  0.17952327  0.86849544    -0.97210
O681        O  0.11816363  0.20993961  0.90708285    -0.90510
O682        O  0.14260786  0.17672255  0.86171669    -0.93360
C683        C  0.47334884  0.04054573  0.89152354     1.00400
C684        C  0.08548063  0.04419573  0.89042288     1.13330
C685        C  0.01339685  0.11758174  0.98863205     1.04110
O686        O  0.01319454  0.19362953  0.94015663    -0.95510
O687        O  0.07110143  0.23884239  0.90895359    -0.91250
O688        O  0.10460454  0.25487634  0.86094756    -0.84400
C689        C  0.08755034  0.26006369  0.88437498     1.10750
O690        O  0.16199930  0.14988766  0.96637162    -0.97480
Zr691      Zr  0.14704855  0.17931470  0.92274433     1.88940
O692        O  0.17179365  0.25282448  0.85856382    -0.74130
O693        O  0.09337939  0.21868397  0.97824313    -0.53390
O694        O  0.16110620  0.21170125  0.97632010    -0.98070
O695        O  0.19965707  0.17735538  0.90938446    -0.55290
O696        O  0.18904264  0.23798254  0.90750928    -0.74650
C697        C  0.19341540  0.25909640  0.88320937     0.97690
O698        O  0.09796069  0.23041048  0.79661582    -0.63470
O699        O  0.08157323  0.07499979  0.79802389    -0.58270
O700        O  0.13284066  0.20021143  0.78971407    -0.94960
O701        O  0.12325103  0.14504453  0.78751966    -0.93380
O702        O  0.00329007  0.08515779  0.79863373    -0.93740
O703        O  0.00230770  0.14378299  0.80228611    -0.92520
C704        C  0.13081656  0.17407454  0.77356293     1.16540
H705        H  0.03637152  0.06671830  0.85767801     0.32480
H706        H  0.04318403  0.19220296  0.86106177     0.43330
H707        H  0.16492356  0.18717866  0.85055095     0.36860
H708        H  0.09135537  0.15212719  0.97168643     0.33340
H709        H  0.45003700  0.10860035  0.85175203     0.25130
H710        H  0.08299430  0.23342220  0.98275899     0.31060
H711        H  0.18675122  0.22530439  0.97688322     0.36970
H712        H  0.47763293  0.07165105  0.79889438     0.31430
H713        H  0.09905212  0.06795794  0.79352874     0.30310
H714        H  0.16045689  0.10780123  0.81756952     0.31990
H715        H  0.21871768  0.19841374  0.92014712     0.30960
H716        H  0.01980838  0.16877182  0.80178591     0.34960
H717        H  0.08364094  0.21011624  0.78181406     0.27690
H718        H  0.04142513  0.05092363  0.98449622     0.31920
H719        H  0.18605147  0.16666693  0.97334296     0.34770
H720        H  0.06190591  0.05437540  0.80868192     0.27390
H721        H  0.08110040  0.23721165  0.80452658     0.40260
H722        H  0.49652405  0.18124351  0.92142351     0.30310
H723        H  0.46424657  0.11948229  0.88908113     0.37930
H724        H  0.20363264  0.18163093  0.88447908     0.29780
H725        H  0.08614329  0.20260322  0.99800115     0.29840
H726        H  0.07243431  0.08759428  0.99446108     0.30110
Zr727      Zr  0.45055416  0.04253580  0.08193021     2.17510
O728        O  0.43996837  0.50685523  0.03138052    -0.52250
O729        O  0.50781872  0.05148996  0.09433559    -0.75450
O730        O  0.48323823  0.07692107  0.03254184    -0.82240
O731        O  0.40350533  0.46635076  0.14279573    -0.83980
O732        O  0.48070512  0.12666101  0.03122131    -0.79610
O733        O  0.43641489  0.48319115  0.09430827    -0.91240
O734        O  0.02836784  0.08887337  0.13931167    -0.77200
O735        O  0.47994747  0.10223397  0.09723119    -0.86700
O736        O  0.45566524  0.04400889  0.14273181    -0.86390
O737        O  0.41459915  0.06468324  0.06105769    -0.73140
O738        O  0.39249401  0.01105317  0.10381990    -0.85280
Zr739      Zr  0.39175181  0.09609061  0.16179110     2.26060
Zr740      Zr  0.44359930  0.12426457  0.07838380     2.06270
Zr741      Zr  0.39790750  0.01407487  0.16467064     2.10050
Zr742      Zr  0.48527975  0.10367076  0.15766808     1.78760
O743        O  0.34059982  0.46345757  0.17236501    -0.94080
O744        O  0.03488967  0.15974260  0.14282527    -0.41890
O745        O  0.42788945  0.07369819  0.18076357    -0.78520
O746        O  0.45004516  0.12744295  0.13949744    -0.97210
O747        O  0.38625281  0.09397845  0.10091204    -0.90510
O748        O  0.36184469  0.03634724  0.14631516    -0.93360
C749        C  0.03108588  0.06943731  0.11667496     1.00400
C750        C  0.41878107  0.46089484  0.11770832     1.13330
C751        C  0.49101998  0.10639948  0.01940009     1.04110
O752        O  0.49126614  0.18267991  0.06788779    -0.95510
O753        O  0.43329179  0.16998855  0.09900334    -0.91250
O754        O  0.39974599  0.15248316  0.14698032    -0.84400
C755        C  0.41681741  0.17474256  0.12356933     1.10750
O756        O  0.34269084  0.48987379  0.04190968    -0.97480
Zr757      Zr  0.35739813  0.03444674  0.08528067     1.88940
O758        O  0.33253778  0.08306456  0.14941229    -0.74130
O759        O  0.41109656  0.12756592  0.02971439    -0.53390
O760        O  0.34342187  0.05260295  0.03155816    -0.98070
O761        O  0.30454871  0.48012514  0.09870306    -0.55290
O762        O  0.31536791  0.05109767  0.10037667    -0.74650
C763        C  0.31093909  0.06774422  0.12473310     0.97690
O764        O  0.40638500  0.13473644  0.21136005    -0.63470
O765        O  0.42291435  0.99572039  0.21003139    -0.58270
O766        O  0.37176508  0.06972225  0.21838689    -0.94960
O767        O  0.38129612  0.02411115  0.22057283    -0.93380
O768        O  0.00118603  0.08448647  0.20954953    -0.93740
O769        O  0.50224679  0.14402956  0.20558198    -0.92520
C770        C  0.37378741  0.04560609  0.23454031     1.16540
H771        H  0.46810067  0.03267558  0.15043852     0.32480
H772        H  0.46120195  0.15131159  0.14690015     0.43330
H773        H  0.33953369  0.02446267  0.15748628     0.36860
H774        H  0.41310210  0.06296896  0.03635515     0.33340
H775        H  0.05439937  0.16099162  0.15615388     0.25130
H776        H  0.42162549  0.15268712  0.02508202     0.31060
H777        H  0.31777599  0.04047219  0.03091445     0.36970
H778        H  0.02684051  0.09658135  0.20924764     0.31430
H779        H  0.40524365  0.47105961  0.21447896     0.30310
H780        H  0.34376298  0.44972433  0.19049075     0.31990
H781        H  0.28580552  0.48158534  0.08654705     0.30960
H782        H  0.98552183  0.15250652  0.20529421     0.34960
H783        H  0.42088834  0.12894138  0.22608451     0.27690
H784        H  0.46316504  0.51173220  0.02368145     0.31920
H785        H  0.31872255  0.48263152  0.03466525     0.34770
H786        H  0.44250904  0.99466325  0.19933459     0.27390
H787        H  0.42307227  0.15844600  0.20341927     0.40260
H788        H  0.00799386  0.18687993  0.08653669     0.30310
H789        H  0.04031457  0.15728498  0.11872619     0.37930
H790        H  0.29968288  0.48128082  0.12325303     0.29780
H791        H  0.41820168  0.11854245  0.01000497     0.29840
H792        H  0.43214727  0.01731200  0.01363361     0.30110
Zr793      Zr  0.27902086  0.87126451  0.66220169     2.17510
O794        O  0.24139450  0.82976325  0.70532673    -0.52250
O795        O  0.23470513  0.88715543  0.65025972    -0.75450
O796        O  0.28723408  0.89582889  0.72012194    -0.82240
O797        O  0.24903982  0.79608976  0.60073028    -0.83980
O798        O  0.33938151  0.94568437  0.72125609    -0.79610
O799        O  0.23366182  0.81263618  0.64977129    -0.91240
O800        O  0.24988783  0.91999240  0.60194719    -0.77200
O801        O  0.30880484  0.93097531  0.64682184    -0.86700
O802        O  0.27610231  0.87275938  0.60114518    -0.86390
O803        O  0.33729048  0.89239010  0.68237949    -0.73140
O804        O  0.30626568  0.83999290  0.64021197    -0.85280
Zr805      Zr  0.39224575  0.92454909  0.58363180     2.26420
Zr806      Zr  0.36705300  0.95233919  0.66609286     2.06270
Zr807      Zr  0.30389807  0.84280602  0.57901263     2.10050
Zr808      Zr  0.30694583  0.93230141  0.58571755     1.78760
O809        O  0.29414029  0.78493714  0.56714585    -0.94080
O810        O  0.31404281  0.98891043  0.59926156    -0.41890
O811        O  0.33444537  0.90235850  0.56212054    -0.78520
O812        O  0.36513046  0.95574405  0.60501381    -0.97210
O813        O  0.39503825  0.92250447  0.64436251    -0.90510
O814        O  0.36189403  0.86475950  0.59888648    -0.93360
C815        C  0.22891050  0.90356860  0.62637421     1.00400
C816        C  0.22833331  0.79071240  0.62596023     1.13330
C817        C  0.31174794  0.92207243  0.73577234     1.04110
O818        O  0.36419147  0.00515175  0.67317555    -0.95510
O819        O  0.42212249  0.99961635  0.64658778    -0.91250
O820        O  0.43856898  0.98289636  0.59823832    -0.84400
C821        C  0.44323462  0.50503816  0.62182765     1.10750
O822        O  0.33795873  0.82036012  0.70501788    -0.97480
Zr823      Zr  0.36496189  0.86291041  0.65923378     1.88940
O824        O  0.44086541  0.91662978  0.59715648    -0.74130
O825        O  0.41081191  0.96802026  0.71057638    -0.53390
O826        O  0.39815105  0.88204666  0.71234131    -0.98070
O827        O  0.36115321  0.80790498  0.64445157    -0.55290
O828        O  0.42453879  0.88106955  0.64360957    -0.74650
C829        C  0.44665951  0.90010652  0.62072357     0.97690
O830        O  0.41411982  0.96000394  0.53264816    -0.63470
O831        O  0.26782598  0.83956246  0.53059717    -0.58270
O832        O  0.39202735  0.89162289  0.53339996    -0.94960
O833        O  0.33930197  0.84232373  0.53115181    -0.93380
O834        O  0.27253789  0.91289850  0.53341850    -0.93740
O835        O  0.33195744  0.97388896  0.53913240    -0.92520
C836        C  0.37011026  0.86250239  0.51962523     1.16540
H837        H  0.25237313  0.86174703  0.59330228     0.32480
H838        H  0.37771869  0.97960158  0.59759465     0.43330
H839        H  0.37244986  0.85244729  0.58889024     0.36860
H840        H  0.33804661  0.88952473  0.70680937     0.33340
H841        H  0.29611285  0.99030670  0.58547788     0.25130
H842        H  0.41036110  0.98684172  0.72364683     0.31060
H843        H  0.41296483  0.87130651  0.71221733     0.36970
H844        H  0.26042212  0.92641258  0.53232801     0.31430
H845        H  0.27254117  0.82669162  0.51271326     0.30310
H846        H  0.27879876  0.77702159  0.54678406     0.31990
H847        H  0.38223221  0.81409566  0.63086518     0.30960
H848        H  0.35664110  0.98023091  0.53848102     0.34960
H849        H  0.39437138  0.94897246  0.51649060     0.27690
H850        H  0.22982991  0.84071577  0.71750314     0.31920
H851        H  0.35500596  0.81322286  0.71134783     0.34770
H852        H  0.24378797  0.82333114  0.53806798     0.27390
H853        H  0.41497576  0.98187500  0.53917305     0.40260
H854        H  0.34020316  0.99719633  0.68091008     0.30310
H855        H  0.30590306  0.98690086  0.62321475     0.37930
H856        H  0.34191000  0.79704862  0.62771345     0.29780
H857        H  0.40106876  0.94800356  0.72645848     0.29840
H858        H  0.25720627  0.82849234  0.72233732     0.30110
Zr859      Zr  0.38972396  0.76015513  0.34597148     2.17510
O860        O  0.34827425  0.72233643  0.30289826    -0.52250
O861        O  0.40561263  0.71583722  0.35793125    -0.75450
O862        O  0.41416862  0.76842226  0.28797890    -0.82240
O863        O  0.31455706  0.73026114  0.40744736    -0.83980
O864        O  0.46406469  0.82052945  0.28683341    -0.79610
O865        O  0.33106165  0.71489015  0.35837475    -0.91240
O866        O  0.43839109  0.73097205  0.40628323    -0.77200
O867        O  0.44944163  0.78991482  0.36132065    -0.86700
O868        O  0.39125649  0.75724300  0.40703330    -0.86390
O869        O  0.41083185  0.81842536  0.32581098    -0.73140
O870        O  0.35846874  0.78740080  0.36801623    -0.85280
Zr871      Zr  0.44312921  0.87341309  0.42452397     2.26420
Zr872      Zr  0.47080129  0.84815988  0.34203509     2.06270
Zr873      Zr  0.36134851  0.78506709  0.42921757     2.10050
Zr874      Zr  0.45080970  0.78807668  0.42243117     1.78760
O875        O  0.30350924  0.77528591  0.44129636    -0.94080
O876        O  0.00734635  0.79504381  0.40878923    -0.41890
O877        O  0.42091880  0.81561479  0.44605089    -0.78520
O878        O  0.47426680  0.84625576  0.40310551    -0.97210
O879        O  0.44099589  0.87616206  0.36379818    -0.90510
O880        O  0.38331633  0.84306247  0.40934813    -0.93360
C881        C  0.42198250  0.71001229  0.38184034     1.00400
C882        C  0.30915027  0.70956935  0.38219116     1.13330
C883        C  0.44040267  0.79292950  0.27231158     1.04110
O884        O  0.02353860  0.84517127  0.33489513    -0.95510
O885        O  0.01813624  0.90321825  0.36151154    -0.91250
O886        O  0.00147109  0.91970154  0.40987453    -0.84400
C887        C  0.02359032  0.92434446  0.38626928     1.10750
O888        O  0.33872878  0.81906471  0.30330369    -0.97480
Zr889      Zr  0.38137329  0.84609482  0.34901005     1.88940
O890        O  0.43520773  0.92204461  0.41098729    -0.74130
O891        O  0.48652131  0.89196099  0.29759459    -0.53390
O892        O  0.40027626  0.87921387  0.29585162    -0.98070
O893        O  0.32641688  0.84226836  0.36404977    -0.55290
O894        O  0.39958127  0.90569393  0.36457818    -0.74650
C895        C  0.41865751  0.92783123  0.38743670     0.97690
O896        O  0.47868842  0.89519052  0.47546662    -0.63470
O897        O  0.35816693  0.74895900  0.47757134    -0.58270
O898        O  0.41029864  0.87328102  0.47478249    -0.94960
O899        O  0.36098521  0.82056527  0.47707137    -0.93380
O900        O  0.43143826  0.75376383  0.47478820    -0.93740
O901        O  0.49242429  0.81299816  0.46901644    -0.92520
C902        C  0.38118906  0.85138247  0.48858006     1.16540
H903        H  0.38023419  0.73351444  0.41487792     0.32480
H904        H  0.49813571  0.85883955  0.41048855     0.43330
H905        H  0.37103085  0.85363375  0.41936933     0.36860
H906        H  0.40793309  0.81919633  0.30138923     0.33340
H907        H  0.00876424  0.77716334  0.42263805     0.25130
H908        H  0.50526891  0.89143713  0.28445797     0.31060
H909        H  0.38948362  0.89398037  0.29601385     0.36970
H910        H  0.44487512  0.74156716  0.47585733     0.31430
H911        H  0.34561370  0.75391402  0.49560867     0.30310
H912        H  0.29566067  0.75993713  0.46165226     0.31990
H913        H  0.33262430  0.86306054  0.37812856     0.30960
H914        H  0.99979489  0.83795648  0.46890618     0.34960
H915        H  0.46760383  0.87547844  0.49165967     0.27690
H916        H  0.35928300  0.71078925  0.29079079     0.31920
H917        H  0.33140871  0.83601529  0.29715872     0.34770
H918        H  0.34166630  0.72495311  0.47021347     0.27390
H919        H  0.00048759  0.89590420  0.46892141     0.40260
H920        H  0.01552814  0.82116555  0.32717853     0.30310
H921        H  0.50524851  0.78679066  0.38486951     0.37930
H922        H  0.31537848  0.82265787  0.38036427     0.29780
H923        H  0.46646464  0.88228543  0.28176209     0.29840
H924        H  0.34693822  0.73805644  0.28581777     0.30110
Zr925      Zr  0.22562864  0.59443768  0.34586248     2.17510
O926        O  0.26301468  0.59021046  0.30270133    -0.52250
O927        O  0.27001246  0.65466188  0.35771555    -0.75450
O928        O  0.21739830  0.61076316  0.28793201    -0.82240
O929        O  0.25564349  0.54937244  0.40751587    -0.83980
O930        O  0.16528549  0.60853629  0.28683315    -0.79610
O931        O  0.27100790  0.58122761  0.35842349    -0.91240
O932        O  0.25471655  0.67250133  0.40582592    -0.77200
O933        O  0.19593463  0.62445375  0.36123220    -0.86700
O934        O  0.22856856  0.59889325  0.40691174    -0.86390
O935        O  0.16732229  0.55733714  0.32575003    -0.73140
O936        O  0.19832235  0.53593373  0.36790919    -0.85280
Zr937      Zr  0.11242674  0.53468740  0.42449982     2.26420
Zr938      Zr  0.13765295  0.58761572  0.34201601     2.06270
Zr939      Zr  0.20072166  0.54116191  0.42910506     2.10050
Zr940      Zr  0.19781842  0.62766922  0.42233173     1.78760
O941        O  0.21026900  0.99288834  0.44079632    -0.94080
O942        O  0.19037014  0.67702054  0.40908081    -0.41890
O943        O  0.17025774  0.57024522  0.44597198    -0.78520
O944        O  0.13960949  0.59299261  0.40308478    -0.97210
O945        O  0.10960667  0.52979975  0.36377691    -0.90510
O946        O  0.14269846  0.50517114  0.40927510    -0.93360
C947        C  0.27574426  0.67696611  0.38148595     1.00400
C948        C  0.27635111  0.56468189  0.38227934     1.13330
C949        C  0.19288300  0.61250082  0.27229713     1.04110
O950        O  0.14066218  0.64335397  0.33488395    -0.95510
O951        O  0.08262606  0.57992733  0.36152260    -0.91250
O952        O  0.06614875  0.54674956  0.40986712    -0.84400
C953        C  0.06150325  0.56423718  0.38627725     1.10750
O954        O  0.16646583  0.98451249  0.30313766    -0.97480
Zr955      Zr  0.13960123  0.50019833  0.34893758     1.88940
O956        O  0.06373856  0.97814238  0.41103858    -0.74130
O957        O  0.09384590  0.55954789  0.29757205    -0.53390
O958        O  0.10635344  0.98605051  0.29586420    -0.98070
O959        O  0.14335608  0.94899960  0.36385635    -0.55290
O960        O  0.08003014  0.95884848  0.36461025    -0.74650
C961        C  0.05792183  0.95579753  0.38748915     0.97690
O962        O  0.09069870  0.54844340  0.47547497    -0.63470
O963        O  0.23674818  0.57385733  0.47760336    -0.58270
O964        O  0.11258329  0.50199350  0.47475263    -0.94960
O965        O  0.16528264  0.50537152  0.47699150    -0.93380
O966        O  0.23279799  0.64295203  0.47425984    -0.93740
O967        O  0.17309042  0.64405917  0.46929966    -0.92520
C968        C  0.13448461  0.49477634  0.48852442     1.16540
H969        H  0.25230373  0.61161653  0.41473780     0.32480
H970        H  0.12706024  0.60429897  0.41050346     0.43330
H971        H  0.13211371  0.98230762  0.41929447     0.36860
H972        H  0.16653825  0.55368512  0.30132386     0.33340
H973        H  0.20839984  0.69641063  0.42272819     0.25130
H974        H  0.09435405  0.57882849  0.28446550     0.31060
H975        H  0.09152285  0.96049401  0.29603696     0.36970
H976        H  0.24471560  0.66857663  0.47538060     0.31430
H977        H  0.23241733  0.55615856  0.49523983     0.30310
H978        H  0.22554424  0.00018646  0.46120464     0.31990
H979        H  0.12239097  0.93425146  0.37765104     0.30960
H980        H  0.14826718  0.62606601  0.46961197     0.34960
H981        H  0.11048478  0.55719666  0.49158894     0.27690
H982        H  0.27463725  0.61268813  0.29045141     0.31920
H983        H  0.14943135  0.96027537  0.29694866     0.34770
H984        H  0.26082821  0.58214571  0.46995235     0.27390
H985        H  0.08984992  0.56945138  0.46890389     0.40260
H986        H  0.16462368  0.65931740  0.32702559     0.30310
H987        H  0.19825931  0.68311912  0.38505660     0.37930
H988        H  0.16275258  0.95745847  0.38041925     0.29780
H989        H  0.10352816  0.54919794  0.28171410     0.29840
H990        H  0.24710221  0.57310905  0.28575658     0.30110
Zr991      Zr  0.11501151  0.87290111  0.66215961     2.17510
O992        O  0.15656091  0.87686014  0.70527135    -0.52250
O993        O  0.09915485  0.81268892  0.65023870    -0.75450
O994        O  0.09049168  0.85660869  0.72012085    -0.82240
O995        O  0.19007807  0.91802825  0.60043032    -0.83980
O996        O  0.04051407  0.85865966  0.72121239    -0.79610
O997        O  0.17365200  0.88627925  0.64959054    -0.91240
O998        O  0.06627016  0.79498049  0.60195454    -0.77200
O999        O  0.05529430  0.84288525  0.64680366    -0.86700
O1000       O  0.11347006  0.86848574  0.60110092    -0.86390
O1001       O  0.09381113  0.90997433  0.68233866    -0.73140
O1002       O  0.14619395  0.93141932  0.64014752    -0.85280
Zr1003     Zr  0.06147621  0.93264931  0.58363413     2.26420
Zr1004     Zr  0.03385023  0.87969130  0.66608731     2.06270
Zr1005     Zr  0.14333435  0.92624199  0.57894789     2.10050
Zr1006     Zr  0.05392098  0.83968487  0.58570143     1.78760
O1007       O  0.20112337  0.97468410  0.56746322    -0.94080
O1008       O  0.99734114  0.79012559  0.59926539    -0.41890
O1009       O  0.08376174  0.89713310  0.56210782    -0.78520
O1010       O  0.03038718  0.87433241  0.60501762    -0.97210
O1011       O  0.06359374  0.93752008  0.64435935    -0.90510
O1012       O  0.12128361  0.96218500  0.59883725    -0.93360
C1013       C  0.08271880  0.79045528  0.62637192     1.00400
C1014       C  0.19551273  0.90278172  0.62569884     1.13330
C1015       C  0.06419242  0.85477514  0.73575154     1.04110
O1016       O  0.48109160  0.82397307  0.67325481    -0.95510
O1017       O  0.48644234  0.88730190  0.64668231    -0.91250
O1018       O  0.00311605  0.92050116  0.59835215    -0.84400
C1019       C  0.48098887  0.90298850  0.62194360     1.10750
O1020       O  0.16576506  0.98276521  0.70497559    -0.97480
Zr1021     Zr  0.12320923  0.96712628  0.65917951     1.88940
O1022       O  0.06940471  0.98921043  0.59711941    -0.74130
O1023       O  0.01828081  0.90784007  0.71058306    -0.53390
O1024       O  0.10405194  0.98119452  0.71225786    -0.98070
O1025       O  0.17821511  0.51833030  0.64437649    -0.55290
O1026       O  0.10506317  0.50852776  0.64350155    -0.74650
C1027       C  0.08598982  0.51157606  0.62063754     0.97690
O1028       O  0.02590031  0.91891178  0.53270843    -0.63470
O1029       O  0.14680301  0.89374068  0.53035006    -0.58270
O1030       O  0.09429523  0.96536030  0.53337003    -0.94960
O1031       O  0.14362931  0.96201071  0.53107388    -0.93380
O1032       O  0.07341759  0.82473323  0.53343845    -0.93740
O1033       O  0.01238280  0.82300822  0.53905508    -0.92520
C1034       C  0.12340819  0.97259305  0.51957101     1.16540
H1035       H  0.12449995  0.85579368  0.59324566     0.32480
H1036       H  0.00652031  0.86301767  0.59762301     0.43330
H1037       H  0.13355564  0.98505593  0.58883442     0.36860
H1038       H  0.09668431  0.91361403  0.70676616     0.33340
H1039       H  0.49595169  0.77080797  0.58547153     0.25130
H1040       H  0.99943602  0.88858313  0.72365055     0.31060
H1041       H  0.11476678  0.50674988  0.71210776     0.36970
H1042       H  0.05995640  0.79909685  0.53235721     0.31430
H1043       H  0.16048225  0.91153759  0.51290000     0.30310
H1044       H  0.20917913  0.96752104  0.54701963     0.31990
H1045       H  0.17201715  0.53330423  0.63095053     0.30960
H1046       H  0.50553468  0.84098432  0.53874115     0.34960
H1047       H  0.03696073  0.91027009  0.51650563     0.27690
H1048       H  0.14564687  0.85432519  0.71741913     0.31920
H1049       H  0.17288061  0.50695365  0.71127963     0.34770
H1050       H  0.16233371  0.88517088  0.53809841     0.27390
H1051       H  0.50408461  0.89783678  0.53925110     0.40260
H1052       H  0.48909435  0.80794245  0.68086287     0.30310
H1053       H  0.99937547  0.78399722  0.62321283     0.37930
H1054       H  0.18897818  0.50998166  0.62749489     0.29780
H1055       H  0.03830150  0.91807443  0.72646310     0.29840
H1056       H  0.15778695  0.89390167  0.72231031     0.30110
Zr1057     Zr  0.11320631  0.70712808  0.66219342     2.17510
O1058       O  0.10880988  0.74442732  0.70534250    -0.52250
O1059       O  0.17342214  0.75155741  0.65041869    -0.75450
O1060       O  0.12953478  0.69893694  0.72014231    -0.82240
O1061       O  0.06817167  0.73711270  0.60047579    -0.83980
O1062       O  0.12735405  0.64684565  0.72126489    -0.79610
O1063       O  0.10001994  0.75249992  0.64957990    -0.91240
O1064       O  0.19125358  0.73630575  0.60227536    -0.77200
O1065       O  0.14328697  0.67749838  0.64683643    -0.86700
O1066       O  0.11764931  0.71005880  0.60113795    -0.86390
O1067       O  0.07616009  0.64882233  0.68231118    -0.73140
O1068       O  0.05470980  0.67977984  0.64011463    -0.85280
Zr1069     Zr  0.05355346  0.59391122  0.58356635     2.26420
Zr1070     Zr  0.10650162  0.61921332  0.66606145     2.06270
Zr1071     Zr  0.05991931  0.68215172  0.57891216     2.10050
Zr1072     Zr  0.14649287  0.67937436  0.58573683     1.78760
O1073       O  0.01164428  0.69170094  0.56724834    -0.94080
O1074       O  0.19591445  0.67204842  0.59901198    -0.41890
O1075       O  0.08906690  0.65174267  0.56207973    -0.78520
O1076       O  0.11186237  0.62115794  0.60499279    -0.97210
O1077       O  0.04868585  0.59112228  0.64429206    -0.90510
O1078       O  0.02398984  0.62413805  0.59877634    -0.93360
C1079       C  0.19571993  0.75731462  0.62663890     1.00400
C1080       C  0.08348331  0.75783350  0.62570987     1.13330
C1081       C  0.13128341  0.67443467  0.73579333     1.04110
O1082       O  0.16230774  0.62235852  0.67314000    -0.95510
O1083       O  0.09883127  0.56418150  0.64658589    -0.91250
O1084       O  0.06565185  0.54766782  0.59823639    -0.84400
C1085       C  0.08314216  0.54304179  0.62183979     1.10750
O1086       O  0.00335166  0.64794527  0.70490593    -0.97480
Zr1087     Zr  0.01902948  0.62106765  0.65911245     1.88940
O1088       O  0.99703509  0.54517802  0.59704227    -0.74130
O1089       O  0.07854067  0.57540238  0.71051640    -0.53390
O1090       O  0.00486207  0.58783385  0.71219478    -0.98070
O1091       O  0.46781472  0.62477345  0.64415637    -0.55290
O1092       O  0.47772813  0.56148619  0.64344998    -0.74650
C1093       C  0.47468836  0.53936705  0.62058792     0.97690
O1094       O  0.06751262  0.57234007  0.53261023    -0.63470
O1095       O  0.09254186  0.71808685  0.53034303    -0.58270
O1096       O  0.02074389  0.59391586  0.53333099    -0.94960
O1097       O  0.02404097  0.64658044  0.53108613    -0.93380
O1098       O  0.16170623  0.71432285  0.53379434    -0.93740
O1099       O  0.16302193  0.65475489  0.53877723    -0.92520
C1100       C  0.01345355  0.61577062  0.51956794     1.16540
H1101       H  0.13035410  0.73379388  0.59331079     0.32480
H1102       H  0.12318633  0.60862182  0.59758724     0.43330
H1103       H  0.00112146  0.61352281  0.58876773     0.36860
H1104       H  0.07249756  0.64803636  0.70673504     0.33340
H1105       H  0.21528965  0.69010223  0.58537160     0.25130
H1106       H  0.09785115  0.57601331  0.72366060     0.31060
H1107       H  0.47930379  0.57302101  0.71202136     0.36970
H1108       H  0.18733645  0.72634135  0.53271182     0.31430
H1109       H  0.07481055  0.71376583  0.51274590     0.30310
H1110       H  0.01891202  0.70693134  0.54680907     0.31990
H1111       H  0.45317925  0.60390795  0.63018683     0.30960
H1112       H  0.14544179  0.62979166  0.53883564     0.34960
H1113       H  0.07620843  0.59212832  0.51650526     0.27690
H1114       H  0.13126607  0.75608357  0.71763105     0.31920
H1115       H  0.47909597  0.63093662  0.71105594     0.34770
H1116       H  0.10088885  0.74218385  0.53797685     0.27390
H1117       H  0.08857197  0.57160280  0.53921557     0.40260
H1118       H  0.17821399  0.64629973  0.68109290     0.30310
H1119       H  0.20199571  0.67994362  0.62303771     0.37930
H1120       H  0.47631117  0.64430057  0.62774868     0.29780
H1121       H  0.06809563  0.58501593  0.72633924     0.29840
H1122       H  0.09170050  0.72847707  0.72225757     0.30110
Zr1123     Zr  0.39143449  0.59618691  0.34596078     2.17510
O1124       O  0.39572312  0.63788007  0.30285867    -0.52250
O1125       O  0.33121831  0.58036000  0.35777300    -0.75450
O1126       O  0.37510218  0.57173372  0.28798999    -0.82240
O1127       O  0.43643326  0.67116877  0.40777182    -0.83980
O1128       O  0.37733797  0.52185431  0.28681209    -0.79610
O1129       O  0.40469307  0.65476760  0.35860200    -0.91240
O1130       O  0.31347138  0.54742301  0.40601812    -0.77200
O1131       O  0.36139620  0.53644770  0.36124095    -0.86700
O1132       O  0.38695208  0.59458958  0.40701501    -0.86390
O1133       O  0.42850858  0.57498828  0.32578801    -0.73140
O1134       O  0.44992344  0.62734487  0.36804771    -0.85280
Zr1135     Zr  0.45114225  0.54263810  0.42451157     2.26420
Zr1136     Zr  0.39821626  0.51501204  0.34198473     2.06270
Zr1137     Zr  0.44468329  0.62444109  0.42924192     2.10050
Zr1138     Zr  0.35813445  0.53502169  0.42233661     1.78760
O1139       O  0.49297615  0.68227937  0.44087242    -0.94080
O1140       O  0.30861723  0.97845637  0.40863552    -0.41890
O1141       O  0.41556051  0.56485464  0.44601883    -0.78520
O1142       O  0.39284111  0.51154177  0.40305478    -0.97210
O1143       O  0.45602436  0.54476047  0.36378248    -0.90510
O1144       O  0.48066888  0.60244662  0.40933235    -0.93360
C1145       C  0.30896683  0.56390243  0.38161465     1.00400
C1146       C  0.42118569  0.67661236  0.38250840     1.13330
C1147       C  0.37336454  0.54550134  0.27231286     1.04110
O1148       O  0.34243996  0.96231342  0.33485613    -0.95510
O1149       O  0.40588144  0.96763102  0.36144251    -0.91250
O1150       O  0.43903073  0.98428704  0.40981422    -0.84400
C1151       C  0.42154474  0.96216799  0.38620435     1.10750
O1152       O  0.50123629  0.64695746  0.30322996    -0.97480
Zr1153     Zr  0.48563571  0.60437676  0.34899048     1.88940
O1154       O  0.50768335  0.55051107  0.41102962    -0.74130
O1155       O  0.42620124  0.49924758  0.29748684    -0.53390
O1156       O  0.49963884  0.58515812  0.29591344    -0.98070
O1157       O  0.03690310  0.65937179  0.36369614    -0.55290
O1158       O  0.02700003  0.58618272  0.36465993    -0.74650
C1159       C  0.03004381  0.56709426  0.38750765     0.97690
O1160       O  0.43725892  0.00706822  0.47543728    -0.63470
O1161       O  0.41207421  0.62769148  0.47785267    -0.58270
O1162       O  0.48393199  0.57549503  0.47476684    -0.94960
O1163       O  0.48056654  0.62482008  0.47706242    -0.93380
O1164       O  0.34306806  0.55439715  0.47461029    -0.93740
O1165       O  0.34131052  0.49338368  0.46890569    -0.92520
C1166       C  0.49118904  0.60462663  0.48855516     1.16540
H1167       H  0.37424687  0.60560698  0.41486627     0.32480
H1168       H  0.38153235  0.98767251  0.41044172     0.43330
H1169       H  0.50354272  0.61472563  0.41933053     0.36860
H1170       H  0.43216640  0.57789208  0.30136503     0.33340
H1171       H  0.28926471  0.97703956  0.42238739     0.25130
H1172       H  0.40689838  0.98049468  0.28438717     0.31060
H1173       H  0.02519167  0.59585820  0.29604618     0.36970
H1174       H  0.31742725  0.54097027  0.47560654     0.31430
H1175       H  0.42983251  0.64129566  0.49536310     0.30310
H1176       H  0.48574139  0.69024156  0.46133422     0.31990
H1177       H  0.05210104  0.65314987  0.37668672     0.30960
H1178       H  0.35917211  0.98637728  0.46913451     0.34960
H1179       H  0.42861157  0.51816503  0.49158901     0.27690
H1180       H  0.37321922  0.62708409  0.29065709     0.31920
H1181       H  0.02536145  0.65395356  0.29678853     0.34770
H1182       H  0.40352090  0.64325494  0.47016883     0.27390
H1183       H  0.41616887  0.98528253  0.46885414     0.40260
H1184       H  0.32651942  0.97033345  0.32692440     0.30310
H1185       H  0.30254177  0.98052532  0.38467698     0.37930
H1186       H  0.02871593  0.66995758  0.38094659     0.29780
H1187       H  0.43656933  0.51929417  0.28164360     0.29840
H1188       H  0.41275956  0.63902291  0.28586180     0.30110
Zr1189     Zr  0.39172423  0.92473157  0.92612882     2.17510
O1190       O  0.41700507  0.96031773  0.97670509    -0.52250
O1191       O  0.43995374  0.91567159  0.91364592    -0.75450
O1192       O  0.38985964  0.89026798  0.97550560    -0.82240
O1193       O  0.42098484  0.00099103  0.86546201    -0.83980
O1194       O  0.33753435  0.84057913  0.97679612    -0.79610
O1195       O  0.43703202  0.98405640  0.91389795    -0.91240
O1196       O  0.42311115  0.87837913  0.86859445    -0.77200
O1197       O  0.36134330  0.86506132  0.91073695    -0.86700
O1198       O  0.39537671  0.92335627  0.86532319    -0.86390
O1199       O  0.33362890  0.90267014  0.94699033    -0.73140
O1200       O  0.36523142  0.95632123  0.90431696    -0.85280
Zr1201     Zr  0.27938535  0.87142665  0.84622858     2.26420
Zr1202     Zr  0.30297110  0.84312040  0.92958328     2.06270
Zr1203     Zr  0.36763441  0.95339356  0.84346178     2.10050
Zr1204     Zr  0.36524933  0.86372032  0.85028684     1.78760
O1205       O  0.36113111  0.00407107  0.83572995    -0.94080
O1206       O  0.35864649  0.80755899  0.86494463    -0.41890
O1207       O  0.33791835  0.89379654  0.82727638    -0.78520
O1208       O  0.30624875  0.83998998  0.86846199    -0.97210
O1209       O  0.27598076  0.87348307  0.90710795    -0.90510
O1210       O  0.30928405  0.93115609  0.86178055    -0.93360
C1211       C  0.44526285  0.89775516  0.89126534     1.00400
C1212       C  0.44171352  0.50638927  0.89054276     1.13330
C1213       C  0.36811012  0.86080612  0.98864217     1.04110
O1214       O  0.29204141  0.78466644  0.94019805    -0.95510
O1215       O  0.24698830  0.79742003  0.90888835    -0.91250
O1216       O  0.23096715  0.81497372  0.86093734    -0.84400
C1217       C  0.22577397  0.79268389  0.88431825     1.10750
O1218       O  0.33663406  0.97750326  0.96624726    -0.97480
Zr1219     Zr  0.30673222  0.93299269  0.92281879     1.88940
O1220       O  0.23320179  0.88439946  0.85870072    -0.74130
O1221       O  0.26710006  0.83994882  0.97813682    -0.53390
O1222       O  0.27459587  0.91487395  0.97654128    -0.98070
O1223       O  0.30845707  0.98744388  0.90942382    -0.55290
O1224       O  0.24802300  0.91633447  0.90775821    -0.74650
C1225       C  0.22692540  0.89967777  0.88341196     0.97690
O1226       O  0.25535006  0.83303730  0.79648314    -0.63470
O1227       O  0.41105790  0.97185280  0.79814870    -0.58270
O1228       O  0.28586143  0.89792293  0.78968867    -0.94960
O1229       O  0.34106960  0.94344300  0.78752326    -0.93380
O1230       O  0.40033799  0.88300051  0.79840810    -0.93740
O1231       O  0.34177321  0.82346298  0.80230192    -0.92520
C1232       C  0.31204650  0.92199784  0.77354516     1.16540
H1233       H  0.41915003  0.93467502  0.85762384     0.32480
H1234       H  0.29351762  0.81613341  0.86102396     0.43330
H1235       H  0.29888018  0.94306783  0.85062499     0.36860
H1236       H  0.33384005  0.90435241  0.97169538     0.33340
H1237       H  0.37699005  0.80637238  0.85170939     0.25130
H1238       H  0.25224054  0.81482667  0.98260207     0.31060
H1239       H  0.26113912  0.92706116  0.97720063     0.36970
H1240       H  0.41383782  0.87084652  0.79862477     0.31430
H1241       H  0.41802933  0.99635368  0.79362549     0.30310
H1242       H  0.37845334  0.51805953  0.81801261     0.31990
H1243       H  0.28801210  0.98584587  0.92119210     0.30960
H1244       H  0.31664105  0.81534625  0.80236227     0.34960
H1245       H  0.27570054  0.83868114  0.78189865     0.27690
H1246       H  0.43527505  0.95534978  0.98436028     0.31920
H1247       H  0.31998317  0.98487902  0.97338089     0.34770
H1248       H  0.43170104  0.97289543  0.80885390     0.27390
H1249       H  0.24799593  0.80922558  0.80433174     0.40260
H1250       H  0.30430376  0.78028613  0.92141438     0.30310
H1251       H  0.36636516  0.80988190  0.88909210     0.37930
H1252       H  0.30293534  0.98655391  0.88476103     0.29780
H1253       H  0.28313777  0.84868936  0.99793501     0.29840
H1254       H  0.39871874  0.94989761  0.99446545     0.30110
Zr1255     Zr  0.44311348  0.87310816  0.08197440     2.17510
O1256       O  0.47877412  0.89830484  0.03142721    -0.52250
O1257       O  0.43413855  0.92139560  0.09436672    -0.75450
O1258       O  0.40872393  0.87133067  0.03257913    -0.82240
O1259       O  0.01933836  0.90227599  0.14273090    -0.83980
O1260       O  0.35897577  0.81905117  0.03128018    -0.79610
O1261       O  0.00244670  0.91835279  0.09428383    -0.91240
O1262       O  0.39682472  0.90457824  0.13939499    -0.77200
O1263       O  0.38342871  0.84278435  0.09732453    -0.86700
O1264       O  0.44169920  0.87676360  0.14277805    -0.86390
O1265       O  0.42096119  0.81500727  0.06109382    -0.73140
O1266       O  0.47463795  0.84657195  0.10382534    -0.85280
Zr1267     Zr  0.38968705  0.76075673  0.16183663     2.26420
Zr1268     Zr  0.36140429  0.78439679  0.07848193     2.06270
Zr1269     Zr  0.47166300  0.84896294  0.16468240     2.10050
Zr1270     Zr  0.38205660  0.84668938  0.15776633     1.78760
O1271       O  0.02235526  0.84250851  0.17253083    -0.94080
O1272       O  0.32594364  0.84016585  0.14302555    -0.41890
O1273       O  0.41205794  0.81928672  0.18082387    -0.78520
O1274       O  0.35829374  0.78767403  0.13960202    -0.97210
O1275       O  0.39173982  0.75737428  0.10095396    -0.90510
O1276       O  0.44941237  0.79062676  0.14630377    -0.93360
C1277       C  0.41622398  0.92672345  0.11672762     1.00400
C1278       C  0.02476669  0.92300910  0.11765128     1.13330
C1279       C  0.37925022  0.84962070  0.01943820     1.04110
O1280       O  0.30297497  0.77359424  0.06798795    -0.95510
O1281       O  0.31571451  0.72837771  0.09916717    -0.91250
O1282       O  0.33327428  0.71232988  0.14709985    -0.84400
C1283       C  0.31098732  0.70714474  0.12372024     1.10750
O1284       O  0.49562702  0.81796145  0.04171444    -0.97480
Zr1285     Zr  0.45125255  0.78808865  0.08526163     1.88940
O1286       O  0.40267812  0.71456919  0.14935202    -0.74130
O1287       O  0.35807843  0.74852174  0.02986831    -0.53390
O1288       O  0.43305167  0.75585191  0.03159568    -0.98070
O1289       O  0.00574951  0.78989369  0.09860228    -0.55290
O1290       O  0.43467364  0.72941685  0.10033729    -0.74650
C1291       C  0.41800432  0.70831280  0.12466824     0.97690
O1292       O  0.35114218  0.73671220  0.21146966    -0.63470
O1293       O  0.48996617  0.89236977  0.21000195    -0.58270
O1294       O  0.41615617  0.76713104  0.21837930    -0.94960
O1295       O  0.46172592  0.82230800  0.22057804    -0.93380
O1296       O  0.40129755  0.88178122  0.20964887    -0.93740
O1297       O  0.34173261  0.82327104  0.20570046    -0.92520
C1298       C  0.44026925  0.79327800  0.23453540     1.16540
H1299       H  0.45303281  0.90053878  0.15047592     0.32480
H1300       H  0.33443595  0.77495269  0.14703489     0.43330
H1301       H  0.46131571  0.78020823  0.15744887     0.36860
H1302       H  0.42264717  0.81522007  0.03638920     0.33340
H1303       H  0.32474784  0.85849094  0.15628750     0.25130
H1304       H  0.33295019  0.73382600  0.02532715     0.31060
H1305       H  0.44530828  0.74246338  0.03090170     0.36970
H1306       H  0.38920706  0.89534176  0.20936952     0.31430
H1307       H  0.51441381  0.89924567  0.21469810     0.30310
H1308       H  0.03620657  0.85969055  0.19040556     0.31990
H1309       H  0.00413784  0.76941602  0.08689048     0.30960
H1310       H  0.33358065  0.79813095  0.20565040     0.34960
H1311       H  0.35695955  0.75700388  0.22621625     0.27690
H1312       H  0.47386884  0.91660948  0.02374488     0.31920
H1313       H  0.50307753  0.80135260  0.03463954     0.34770
H1314       H  0.49116964  0.91306229  0.19923871     0.27390
H1315       H  0.32741591  0.72967926  0.20357987     0.40260
H1316       H  0.29865405  0.78586278  0.08680901     0.30310
H1317       H  0.32832054  0.84793873  0.11889355     0.37930
H1318       H  0.00491447  0.78445528  0.12328181     0.29780
H1319       H  0.36697535  0.76460209  0.01011270     0.29840
H1320       H  0.46833604  0.88001559  0.01366922     0.30110
Zr1321     Zr  0.11257477  0.53513863  0.08197895     2.17510
O1322       O  0.08751764  0.54572005  0.03140477    -0.52250
O1323       O  0.06425367  0.97788806  0.09433779    -0.75450
O1324       O  0.11426035  0.50245515  0.03260426    -0.82240
O1325       O  0.08341699  0.58215776  0.14276693    -0.83980
O1326       O  0.16653743  0.50499695  0.03130675    -0.79610
O1327       O  0.06732931  0.54920672  0.09430313    -0.91240
O1328       O  0.08109098  0.95733696  0.13930294    -0.77200
O1329       O  0.14285287  0.50573731  0.09731981    -0.86700
O1330       O  0.10891531  0.53005341  0.14277924    -0.86390
O1331       O  0.17068121  0.57107160  0.06111805    -0.73140
O1332       O  0.13915837  0.59320350  0.10384337    -0.85280
Zr1333     Zr  0.22493389  0.59395790  0.16184256     2.26420
Zr1334     Zr  0.20124520  0.54207408  0.07848214     2.06270
Zr1335     Zr  0.13675961  0.58781819  0.16470329     2.10050
Zr1336     Zr  0.13894205  0.50044409  0.15775841     1.78760
O1337       O  0.14317957  0.64494304  0.17263393    -0.94080
O1338       O  0.14543251  0.95081319  0.14310533    -0.41890
O1339       O  0.16639294  0.55784658  0.18083063    -0.78520
O1340       O  0.19796353  0.53564782  0.13959460    -0.97210
O1341       O  0.22832496  0.59943408  0.10097042    -0.90510
O1342       O  0.19512088  0.62387734  0.14634853    -0.93360
C1343       C  0.05893779  0.95461904  0.11666316     1.00400
C1344       C  0.06267470  0.56685741  0.11768342     1.13330
C1345       C  0.13596524  0.49468908  0.01947103     1.04110
O1346       O  0.21195665  0.99436760  0.06804015    -0.95510
O1347       O  0.25729909  0.55243728  0.09909662    -0.91250
O1348       O  0.27334492  0.58597236  0.14708394    -0.84400
C1349       C  0.27853716  0.56891879  0.12365912     1.10750
O1350       O  0.16821242  0.64305787  0.04155445    -0.97480
Zr1351     Zr  0.19765764  0.62827990  0.08531494     1.88940
O1352       O  0.27118840  0.65312856  0.14944537    -0.74130
O1353       O  0.23707641  0.57453707  0.02981106    -0.53390
O1354       O  0.23010272  0.64237912  0.03177688    -0.98070
O1355       O  0.19548819  0.68078570  0.09862774    -0.55290
O1356       O  0.25628944  0.67037492  0.10053212    -0.74650
C1357       C  0.27742011  0.67476145  0.12481847     0.97690
O1358       O  0.24889497  0.57928878  0.21141635    -0.63470
O1359       O  0.09338494  0.56270398  0.21004637    -0.58270
O1360       O  0.21865838  0.61411362  0.21836114    -0.94960
O1361       O  0.16348108  0.60448789  0.22058590    -0.93380
O1362       O  0.10371889  0.98456379  0.20954703    -0.93740
O1363       O  0.16227792  0.98353055  0.20575709    -0.92520
C1364       C  0.19251819  0.61206060  0.23452848     1.16540
H1365       H  0.08513884  0.51761574  0.15047115     0.32480
H1366       H  0.21066449  0.52448990  0.14701989     0.43330
H1367       H  0.20557561  0.64620263  0.15749870     0.36860
H1368       H  0.17047176  0.57255972  0.03641450     0.33340
H1369       H  0.12707229  0.93129912  0.15634860     0.25130
H1370       H  0.25163744  0.56397670  0.02518016     0.31060
H1371       H  0.24358919  0.66802752  0.03116264     0.36970
H1372       H  0.09017515  0.95890783  0.20926959     0.31430
H1373       H  0.08647714  0.58025316  0.21472228     0.30310
H1374       H  0.12616129  0.64162687  0.19068244     0.31990
H1375       H  0.21666144  0.69991919  0.08810808     0.30960
H1376       H  0.18732255  0.00085745  0.20606973     0.34960
H1377       H  0.22860547  0.56492865  0.22620663     0.27690
H1378       H  0.06917107  0.52252875  0.02371197     0.31920
H1379       H  0.18487937  0.66718865  0.03472097     0.34770
H1380       H  0.07270155  0.54317940  0.19930248     0.27390
H1381       H  0.25574001  0.56246553  0.20349115     0.40260
H1382       H  0.19946391  0.97768124  0.08672886     0.30310
H1383       H  0.13769771  0.94541853  0.11896190     0.37930
H1384       H  0.19945852  0.68461846  0.12358208     0.29780
H1385       H  0.22094655  0.56744955  0.01010092     0.29840
H1386       H  0.10582087  0.55352448  0.01366871     0.30110
Zr1387     Zr  0.06101018  0.93197216  0.92608326     2.17510
O1388       O  0.02524973  0.92135206  0.97657815    -0.52250
O1389       O  0.07002161  0.98927332  0.91371511    -0.75450
O1390       O  0.09533454  0.96458013  0.97553037    -0.82240
O1391       O  0.48488135  0.88501038  0.86518908    -0.83980
O1392       O  0.14508184  0.96206373  0.97685811    -0.79610
O1393       O  0.00171087  0.91790439  0.91369156    -0.91240
O1394       O  0.10740053  0.50981846  0.86874629    -0.77200
O1395       O  0.12070800  0.96137888  0.91080386    -0.86700
O1396       O  0.06248379  0.93707116  0.86527882    -0.86390
O1397       O  0.08314565  0.89601445  0.94696938    -0.73140
O1398       O  0.02954448  0.87390623  0.90418629    -0.85280
Zr1399     Zr  0.11464226  0.87322348  0.84627609     2.26420
Zr1400     Zr  0.14273082  0.92502953  0.92967405     2.06270
Zr1401     Zr  0.03257093  0.87930641  0.84333469     2.10050
Zr1402     Zr  0.12214751  0.96670503  0.85036306     1.78760
O1403       O  0.48197368  0.82205568  0.83560323    -0.94080
O1404       O  0.17824088  0.51632133  0.86513588    -0.41890
O1405       O  0.09220288  0.90931406  0.82727337    -0.78520
O1406       O  0.14595114  0.93151188  0.86856710    -0.97210
O1407       O  0.11248761  0.86768318  0.90714572    -0.90510
O1408       O  0.05488229  0.84327915  0.86170264    -0.93360
C1409       C  0.08798156  0.51254764  0.89139164     1.00400
C1410       C  0.47942416  0.90028738  0.89028143     1.13330
C1411       C  0.12480494  0.97235060  0.98868454     1.04110
O1412       O  0.20111209  0.97268737  0.94033849    -0.95510
O1413       O  0.18854999  0.91487616  0.90908644    -0.91250
O1414       O  0.17108033  0.88133510  0.86110441    -0.84400
C1415       C  0.19333452  0.89843247  0.88451526     1.10750
O1416       O  0.00832262  0.82401752  0.96606896    -0.97480
Zr1417     Zr  0.05294349  0.83881483  0.92273140     1.88940
O1418       O  0.10169513  0.81404622  0.85864824    -0.74130
O1419       O  0.14595443  0.89241553  0.97828012    -0.53390
O1420       O  0.07108103  0.82482849  0.97646013    -0.98070
O1421       O  0.99859281  0.78600440  0.90923066    -0.55290
O1422       O  0.06964788  0.79682530  0.90762725    -0.74650
C1423       C  0.08634948  0.79243197  0.88330298     0.97690
O1424       O  0.15325841  0.88787625  0.79668492    -0.63470
O1425       O  0.01409937  0.90413563  0.79790612    -0.58270
O1426       O  0.08830934  0.85312723  0.78971040    -0.94960
O1427       O  0.04275202  0.86273887  0.78745054    -0.93380
O1428       O  0.10289498  0.98258579  0.79851161    -0.93740
O1429       O  0.16245217  0.98362416  0.80241219    -0.92520
C1430       C  0.06423779  0.85518894  0.77352173     1.16540
H1431       H  0.05115056  0.94950624  0.85756930     0.32480
H1432       H  0.16982284  0.94268775  0.86117543     0.43330
H1433       H  0.04302193  0.82096962  0.85052367     0.36860
H1434       H  0.08141959  0.89451160  0.97167088     0.33340
H1435       H  0.17944242  0.53583895  0.85186282     0.25130
H1436       H  0.17107171  0.90287276  0.98289316     0.31060
H1437       H  0.05901622  0.79918369  0.97705855     0.36970
H1438       H  0.11501631  0.50824416  0.79879050     0.31430
H1439       H  0.98953900  0.88667434  0.79354062     0.30310
H1440       H  0.46829929  0.82520113  0.81739960     0.31990
H1441       H  0.00010363  0.76721766  0.92123438     0.30960
H1442       H  0.17089902  0.96687483  0.80268130     0.34960
H1443       H  0.14745543  0.90238398  0.78197598     0.27690
H1444       H  0.03013263  0.94454278  0.98430758     0.31920
H1445       H  0.00111965  0.80005444  0.97329899     0.34770
H1446       H  0.01325404  0.92388666  0.80849905     0.27390
H1447       H  0.17697294  0.90455776  0.80461940     0.40260
H1448       H  0.20537190  0.98942779  0.92168638     0.30310
H1449       H  0.17584071  0.52171657  0.88926176     0.37930
H1450       H  0.99968020  0.78125019  0.88463609     0.29780
H1451       H  0.13698513  0.89954502  0.99801562     0.29840
H1452       H  0.03566427  0.91347133  0.99432915     0.30110
Zr1453     Zr  0.05389929  0.59419223  0.92616415     2.17510
O1454       O  0.06459982  0.56925688  0.97675936    -0.52250
O1455       O  0.99662837  0.54585430  0.91384012    -0.75450
O1456       O  0.02119028  0.59588292  0.97552715    -0.82240
O1457       O  0.10078515  0.56493575  0.86534383    -0.83980
O1458       O  0.02370467  0.64814755  0.97679143    -0.79610
O1459       O  0.06786636  0.54887919  0.91382627    -0.91240
O1460       O  0.47606714  0.56269251  0.86888375    -0.77200
O1461       O  0.02448068  0.62444254  0.91079440    -0.86700
O1462       O  0.04880911  0.59049966  0.86536148    -0.86390
O1463       O  0.08985053  0.65231638  0.94698718    -0.73140
O1464       O  0.11196291  0.62078544  0.90427653    -0.85280
Zr1465     Zr  0.11265129  0.70649741  0.84621487     2.26420
Zr1466     Zr  0.06081630  0.68283928  0.92961780     2.06270
Zr1467     Zr  0.10656377  0.61833743  0.84341706     2.10050
Zr1468     Zr  0.01918143  0.62049735  0.85035319     1.78760
O1469       O  0.16371436  0.62477894  0.83564492    -0.94080
O1470       O  0.46957462  0.62705321  0.86489560    -0.41890
O1471       O  0.07656670  0.64793890  0.82725659    -0.78520
O1472       O  0.05435956  0.67952236  0.86850088    -0.97210
O1473       O  0.11816162  0.70993838  0.90708661    -0.90510
O1474       O  0.14260554  0.67672135  0.86171951    -0.93360
C1475       C  0.47334714  0.54054456  0.89152725     1.00400
C1476       C  0.08547707  0.54419441  0.89042591     1.13330
C1477       C  0.01339739  0.61757959  0.98864056     1.04110
O1478       O  0.01319107  0.69362551  0.94016236    -0.95510
O1479       O  0.07109937  0.73884102  0.90895829    -0.91250
O1480       O  0.10460240  0.75487472  0.86095207    -0.84400
C1481       C  0.08754816  0.76006207  0.88437935     1.10750
O1482       O  0.16199897  0.64988768  0.96637458    -0.97480
Zr1483     Zr  0.14704716  0.67931391  0.92274713     1.88940
O1484       O  0.17179223  0.75282306  0.85856500    -0.74130
O1485       O  0.09337785  0.71868518  0.97824748    -0.53390
O1486       O  0.16110554  0.71170222  0.97632185    -0.98070
O1487       O  0.19965463  0.67735263  0.90938743    -0.55290
O1488       O  0.18904246  0.73798122  0.90750970    -0.74650
C1489       C  0.19341500  0.75909494  0.88320960     0.97690
O1490       O  0.09795704  0.73041016  0.79662084    -0.63470
O1491       O  0.08156968  0.57499860  0.79802698    -0.58270
O1492       O  0.13283566  0.70020920  0.78971624    -0.94960
O1493       O  0.12324647  0.64504249  0.78752189    -0.93380
O1494       O  0.00328696  0.58515798  0.79863827    -0.93740
O1495       O  0.00230487  0.64378369  0.80229236    -0.92520
C1496       C  0.13081157  0.67407234  0.77356494     1.16540
H1497       H  0.03636868  0.56671760  0.85768213     0.32480
H1498       H  0.04318200  0.69220206  0.86106752     0.43330
H1499       H  0.16492108  0.68717724  0.85055345     0.36860
H1500       H  0.09135486  0.65212615  0.97169043     0.33340
H1501       H  0.45003436  0.60859994  0.85175587     0.25130
H1502       H  0.08298750  0.73341808  0.98276705     0.31060
H1503       H  0.18675056  0.72530563  0.97688445     0.36970
H1504       H  0.47762982  0.57165163  0.79889883     0.31430
H1505       H  0.09904832  0.56795640  0.79353192     0.30310
H1506       H  0.16045340  0.60780003  0.81757181     0.31990
H1507       H  0.21871572  0.69841109  0.92014946     0.30960
H1508       H  0.01980770  0.66877181  0.80179044     0.34960
H1509       H  0.08363859  0.71011676  0.78181764     0.27690
H1510       H  0.04142406  0.55092283  0.98449941     0.31920
H1511       H  0.18605006  0.66666816  0.97334807     0.34770
H1512       H  0.06190216  0.55437438  0.80868503     0.27390
H1513       H  0.08109545  0.73720938  0.80453222     0.40260
H1514       H  0.49651688  0.68123183  0.92143412     0.30310
H1515       H  0.46424207  0.61947810  0.88908602     0.37930
H1516       H  0.20362977  0.68162744  0.88448191     0.29780
H1517       H  0.08614772  0.70260393  0.99800477     0.29840
H1518       H  0.07243248  0.58759398  0.99446451     0.30110
Zr1519     Zr  0.45053647  0.54252769  0.08193314     2.17510
O1520       O  0.43999077  0.00685995  0.03138082    -0.52250
O1521       O  0.50779781  0.55147517  0.09434405    -0.75450
O1522       O  0.48323154  0.57691615  0.03254866    -0.82240
O1523       O  0.40352123  0.96635911  0.14279637    -0.83980
O1524       O  0.48071205  0.62666355  0.03123358    -0.79610
O1525       O  0.43642789  0.98319789  0.09430670    -0.91240
O1526       O  0.02833796  0.58884252  0.13933296    -0.77200
O1527       O  0.47993923  0.60222157  0.09725035    -0.86700
O1528       O  0.45562267  0.54397996  0.14273734    -0.86390
O1529       O  0.41459907  0.56469450  0.06105693    -0.73140
O1530       O  0.39246661  0.51104915  0.10380175    -0.85280
Zr1531     Zr  0.39173641  0.59608774  0.16178982     2.26060
Zr1532     Zr  0.44360900  0.62427139  0.07839682     2.06270
Zr1533     Zr  0.39785480  0.51405095  0.16465438     2.10050
Zr1534     Zr  0.48524926  0.60363816  0.15768925     1.78760
O1535       O  0.34069287  0.96344812  0.17247456    -0.94080
O1536       O  0.03486960  0.65971369  0.14287719    -0.41890
O1537       O  0.42785141  0.57366981  0.18076365    -0.78520
O1538       O  0.45003621  0.62743286  0.13951235    -0.97210
O1539       O  0.38625599  0.59399318  0.10090917    -0.90510
O1540       O  0.36181482  0.53634827  0.14629805    -0.93360
C1541       C  0.03106069  0.56941478  0.11668987     1.00400
C1542       C  0.41879150  0.96090086  0.11770538     1.13330
C1543       C  0.49102062  0.60639795  0.01940960     1.04110
O1544       O  0.49129674  0.68268198  0.06792853    -0.95510
O1545       O  0.43330203  0.66999587  0.09901423    -0.91250
O1546       O  0.39973959  0.65248400  0.14697991    -0.84400
C1547       C  0.41681985  0.67474679  0.12357443     1.10750
O1548       O  0.34269427  0.98985014  0.04193205    -0.97480
Zr1549     Zr  0.35738988  0.53446561  0.08526218     1.88940
O1550       O  0.33252617  0.58306939  0.14940827    -0.74130
O1551       O  0.41112890  0.62760162  0.02972168    -0.53390
O1552       O  0.34343618  0.55264302  0.03154003    -0.98070
O1553       O  0.30457938  0.98009149  0.09873684    -0.55290
O1554       O  0.31536758  0.55112713  0.10035678    -0.74650
C1555       C  0.31093387  0.56776226  0.12472143     0.97690
O1556       O  0.40636956  0.63473067  0.21136115    -0.63470
O1557       O  0.42273786  0.49559408  0.21004504    -0.58270
O1558       O  0.37174783  0.56971822  0.21838509    -0.94960
O1559       O  0.38127347  0.52410360  0.22056573    -0.93380
O1560       O  0.00114198  0.58442844  0.20956205    -0.93740
O1561       O  0.50219319  0.64396659  0.20562776    -0.92520
C1562       C  0.37377153  0.54560202  0.23453693     1.16540
H1563       H  0.46805045  0.53263941  0.15044657     0.32480
H1564       H  0.46119592  0.65130012  0.14691993     0.43330
H1565       H  0.33950024  0.52446722  0.15746253     0.36860
H1566       H  0.41310865  0.56298658  0.03635385     0.33340
H1567       H  0.05437018  0.66095806  0.15621877     0.25130
H1568       H  0.42167708  0.65272440  0.02508710     0.31060
H1569       H  0.31779065  0.54051687  0.03088888     0.36970
H1570       H  0.02679689  0.59653101  0.20927135     0.31430
H1571       H  0.40538581  0.97122640  0.21459724     0.30310
H1572       H  0.34392186  0.94970063  0.19053683     0.31990
H1573       H  0.28581465  0.98156741  0.08664445     0.30960
H1574       H  0.98551759  0.65250423  0.20529402     0.34960
H1575       H  0.42087521  0.62893625  0.22608277     0.27690
H1576       H  0.46318837  0.01174005  0.02368147     0.31920
H1577       H  0.31872071  0.98259829  0.03469835     0.34770
H1578       H  0.44242558  0.49466283  0.19941071     0.27390
H1579       H  0.42305473  0.65844139  0.20342171     0.40260
H1580       H  0.00801943  0.68686386  0.08657723     0.30310
H1581       H  0.04030998  0.65726251  0.11878188     0.37930
H1582       H  0.29975865  0.98121399  0.12330599     0.29780
H1583       H  0.41822319  0.61856547  0.01001452     0.29840
H1584       H  0.43212839  0.51731156  0.01363443     0.30110
Zr1585     Zr  0.77902113  0.37126491  0.66220140     2.17510
O1586       O  0.74139405  0.32976381  0.70532622    -0.52250
O1587       O  0.73470561  0.38715614  0.65025940    -0.75450
O1588       O  0.78723458  0.39582874  0.72012206    -0.82240
O1589       O  0.74904022  0.29609018  0.60072968    -0.83980
O1590       O  0.83938225  0.44568390  0.72125617    -0.79610
O1591       O  0.73366247  0.31263652  0.64977090    -0.91240
O1592       O  0.74988835  0.41999327  0.60194696    -0.77200
O1593       O  0.80880509  0.43097566  0.64682147    -0.86700
O1594       O  0.77610251  0.37275987  0.60114486    -0.86390
O1595       O  0.83729072  0.39239007  0.68237898    -0.73140
O1596       O  0.80626578  0.33999324  0.64021132    -0.85280
Zr1597     Zr  0.89224581  0.42454915  0.58363098     2.26420
Zr1598     Zr  0.86705314  0.45233914  0.66609244     2.06270
Zr1599     Zr  0.80389811  0.34280647  0.57901198     2.10050
Zr1600     Zr  0.80694611  0.43230186  0.58571712     1.78760
O1601       O  0.79414057  0.28493768  0.56714520    -0.94080
O1602       O  0.81404364  0.48891117  0.59926073    -0.41890
O1603       O  0.83444546  0.40235889  0.56211984    -0.78520
O1604       O  0.86513067  0.45574420  0.60501329    -0.97210
O1605       O  0.89503833  0.42250443  0.64436172    -0.90510
O1606       O  0.86189408  0.36475957  0.59888560    -0.93360
C1607       C  0.72891103  0.40356943  0.62637397     1.00400
C1608       C  0.72833392  0.29071281  0.62595978     1.13330
C1609       C  0.81174868  0.42207206  0.73577252     1.04110
O1610       O  0.86419101  0.50515134  0.67317548    -0.95510
O1611       O  0.92212231  0.49961625  0.64658719    -0.91250
O1612       O  0.93856881  0.48289622  0.59823776    -0.84400
C1613       C  0.94323490  0.00503831  0.62182828     1.10750
O1614       O  0.83795875  0.32035992  0.70501688    -0.97480
Zr1615     Zr  0.86496198  0.36291038  0.65923294     1.88940
O1616       O  0.94086533  0.41662948  0.59715565    -0.74130
O1617       O  0.91081254  0.46802090  0.71057558    -0.53390
O1618       O  0.89815116  0.38204667  0.71234046    -0.98070
O1619       O  0.86115311  0.30790489  0.64445067    -0.55290
O1620       O  0.92453889  0.38106947  0.64360888    -0.74650
C1621       C  0.94665953  0.40010635  0.62072280     0.97690
O1622       O  0.91412151  0.46000413  0.53264744    -0.63470
O1623       O  0.76782540  0.33956270  0.53059700    -0.58270
O1624       O  0.89202663  0.39162312  0.53339861    -0.94960
O1625       O  0.83930120  0.34232407  0.53115053    -0.93380
O1626       O  0.77253750  0.41289881  0.53341849    -0.93740
O1627       O  0.83195824  0.47388904  0.53913167    -0.92520
C1628       C  0.87010937  0.36250275  0.51962376     1.16540
H1629       H  0.75237332  0.36174757  0.59330203     0.32480
H1630       H  0.87771884  0.47960171  0.59759403     0.43330
H1631       H  0.87244977  0.35244732  0.58888918     0.36860
H1632       H  0.83804693  0.38952458  0.70680882     0.33340
H1633       H  0.79611353  0.49030739  0.58547726     0.25130
H1634       H  0.91036130  0.48684197  0.72364634     0.31060
H1635       H  0.91296488  0.37130645  0.71221653     0.36970
H1636       H  0.76042242  0.42641353  0.53232778     0.31430
H1637       H  0.77254011  0.32669151  0.51271310     0.30310
H1638       H  0.77879884  0.27702196  0.54678357     0.31990
H1639       H  0.88223246  0.31409556  0.63086490     0.30960
H1640       H  0.85663973  0.48022364  0.53847468     0.34960
H1641       H  0.89437307  0.44897354  0.51648981     0.27690
H1642       H  0.72982955  0.34071654  0.71750240     0.31920
H1643       H  0.85500610  0.31322288  0.71134702     0.34770
H1644       H  0.74378745  0.32333166  0.53806820     0.27390
H1645       H  0.91497890  0.48187591  0.53917217     0.40260
H1646       H  0.84020287  0.49719572  0.68091072     0.30310
H1647       H  0.80590426  0.48690192  0.62321403     0.37930
H1648       H  0.84191038  0.29704891  0.62771200     0.29780
H1649       H  0.90106995  0.44800407  0.72645752     0.29840
H1650       H  0.75720548  0.32849262  0.72233705     0.30110
Zr1651     Zr  0.88972496  0.26015457  0.34597171     2.17510
O1652       O  0.84827502  0.22233812  0.30289750    -0.52250
O1653       O  0.90561398  0.21583707  0.35793228    -0.75450
O1654       O  0.91417153  0.26842027  0.28798024    -0.82240
O1655       O  0.81455743  0.23026085  0.40744630    -0.83980
O1656       O  0.96406726  0.32052780  0.28683469    -0.79610
O1657       O  0.83106328  0.21488846  0.35837534    -0.91240
O1658       O  0.93839170  0.23097268  0.40628481    -0.77200
O1659       O  0.94944241  0.28991501  0.36132157    -0.86700
O1660       O  0.89125669  0.25724325  0.40703363    -0.86390
O1661       O  0.91083277  0.31842439  0.32581008    -0.73140
O1662       O  0.85846917  0.28740021  0.36801495    -0.85280
Zr1663     Zr  0.94312826  0.37341382  0.42452235     2.26420
Zr1664     Zr  0.97080189  0.34815971  0.34203516     2.06270
Zr1665     Zr  0.86134817  0.28506739  0.42921640     2.10050
Zr1666     Zr  0.95080967  0.28807750  0.42243206     1.78760
O1667       O  0.80350866  0.27528607  0.44129410    -0.94080
O1668       O  0.50734643  0.29504420  0.40879157    -0.41890
O1669       O  0.92091831  0.31561585  0.44605028    -0.78520
O1670       O  0.97426653  0.34625639  0.40310578    -0.97210
O1671       O  0.94099573  0.37616184  0.36379644    -0.90510
O1672       O  0.88331557  0.34306241  0.40934581    -0.93360
C1673       C  0.92198375  0.21001263  0.38184184     1.00400
C1674       C  0.80915138  0.20956824  0.38219102     1.13330
C1675       C  0.94040585  0.29292733  0.27231306     1.04110
O1676       O  0.52354060  0.34517348  0.33489641    -0.95510
O1677       O  0.51813635  0.40321847  0.36151107    -0.91250
O1678       O  0.50147030  0.41970212  0.40987316    -0.84400
C1679       C  0.52358991  0.42434491  0.38626840     1.10750
O1680       O  0.83872901  0.31906136  0.30330130    -0.97480
Zr1681     Zr  0.88137330  0.34609376  0.34900747     1.88940
O1682       O  0.93520575  0.42204435  0.41098317    -0.74130
O1683       O  0.98651985  0.39195924  0.29759337    -0.53390
O1684       O  0.90027610  0.37921117  0.29584810    -0.98070
O1685       O  0.82641661  0.34226726  0.36404595    -0.55290
O1686       O  0.89958040  0.40569330  0.36457321    -0.74650
C1687       C  0.91865603  0.42783079  0.38743186     0.97690
O1688       O  0.97868638  0.39519535  0.47546546    -0.63470
O1689       O  0.85816623  0.24895985  0.47757084    -0.58270
O1690       O  0.91029727  0.37328163  0.47478053    -0.94960
O1691       O  0.86098429  0.32056559  0.47706988    -0.93380
O1692       O  0.93143782  0.25376600  0.47478990    -0.93740
O1693       O  0.99242528  0.31300141  0.46901608    -0.92520
C1694       C  0.88118793  0.35138292  0.48857836     1.16540
H1695       H  0.88023449  0.23351481  0.41487858     0.32480
H1696       H  0.99813527  0.35884037  0.41048935     0.43330
H1697       H  0.87102980  0.35363360  0.41936654     0.36860
H1698       H  0.90793458  0.31919473  0.30138814     0.33340
H1699       H  0.50876363  0.27716322  0.42264018     0.25130
H1700       H  0.00526876  0.39143681  0.28445779     0.31060
H1701       H  0.88948232  0.39397666  0.29600895     0.36970
H1702       H  0.94487444  0.24156912  0.47585963     0.31430
H1703       H  0.84561329  0.25391543  0.49560803     0.30310
H1704       H  0.79565983  0.25993731  0.46165002     0.31990
H1705       H  0.83262376  0.36305951  0.37812451     0.30960
H1706       H  0.49977952  0.33795583  0.46891754     0.34960
H1707       H  0.96760273  0.37548387  0.49165929     0.27690
H1708       H  0.85928264  0.21078950  0.29079064     0.31920
H1709       H  0.83140848  0.33601137  0.29715533     0.34770
H1710       H  0.84166529  0.22495391  0.47021335     0.27390
H1711       H  0.50048662  0.39591067  0.46892144     0.40260
H1712       H  0.51553100  0.32116725  0.32718213     0.30310
H1713       H  0.00524928  0.28679171  0.38487170     0.37930
H1714       H  0.81537801  0.32265687  0.38036054     0.29780
H1715       H  0.96646363  0.38228190  0.28176025     0.29840
H1716       H  0.84694113  0.23805910  0.28581672     0.30110
Zr1717     Zr  0.72563039  0.09443554  0.34586399     2.17510
O1718       O  0.76301759  0.09020735  0.30270487    -0.52250
O1719       O  0.77001421  0.15465993  0.35771650    -0.75450
O1720       O  0.71740252  0.11076037  0.28793275    -0.82240
O1721       O  0.75564408  0.04937057  0.40751918    -0.83980
O1722       O  0.66528915  0.10853219  0.28683130    -0.79610
O1723       O  0.77100903  0.08122524  0.35842652    -0.91240
O1724       O  0.75471744  0.17250058  0.40582544    -0.77200
O1725       O  0.69593656  0.12445229  0.36123191    -0.86700
O1726       O  0.72856965  0.09889195  0.40691308    -0.86390
O1727       O  0.66732425  0.05733520  0.32575071    -0.73140
O1728       O  0.69832324  0.03593172  0.36791097    -0.85280
Zr1729     Zr  0.61242775  0.03468709  0.42449974     2.26420
Zr1730     Zr  0.63765508  0.08761454  0.34201472     2.06270
Zr1731     Zr  0.70072211  0.04116076  0.42910670     2.10050
Zr1732     Zr  0.69781954  0.12766839  0.42233147     1.78760
O1733       O  0.71026905  0.49288959  0.44079341    -0.94080
O1734       O  0.69037037  0.17701907  0.40908007    -0.41890
O1735       O  0.67025848  0.07024470  0.44597243    -0.78520
O1736       O  0.63961100  0.09299194  0.40308355    -0.97210
O1737       O  0.60960810  0.02979887  0.36377675    -0.90510
O1738       O  0.64269907  0.00517013  0.40927622    -0.93360
C1739       C  0.77574555  0.17696479  0.38148608     1.00400
C1740       C  0.77635194  0.06467977  0.38228281     1.13330
C1741       C  0.69288745  0.11249709  0.27229649     1.04110
O1742       O  0.64066669  0.14335371  0.33488097    -0.95510
O1743       O  0.58262807  0.07992696  0.36152159    -0.91250
O1744       O  0.56615052  0.04674994  0.40986669    -0.84400
C1745       C  0.56150529  0.06423750  0.38627660     1.10750
O1746       O  0.66646501  0.48451496  0.30313596    -0.97480
Zr1747     Zr  0.63960219  0.00019665  0.34893876     1.88940
O1748       O  0.56373791  0.47814263  0.41103816    -0.74130
O1749       O  0.59384807  0.05954827  0.29757041    -0.53390
O1750       O  0.60635212  0.48605174  0.29586321    -0.98070
O1751       O  0.64335596  0.44900169  0.36385490    -0.55290
O1752       O  0.58002947  0.45884958  0.36460916    -0.74650
C1753       C  0.55792124  0.45579814  0.38748837     0.97690
O1754       O  0.59070038  0.04844474  0.47547444    -0.63470
O1755       O  0.73674794  0.07385650  0.47760525    -0.58270
O1756       O  0.61258338  0.00199327  0.47475307    -0.94960
O1757       O  0.66528251  0.00537087  0.47699277    -0.93380
O1758       O  0.73279976  0.14295257  0.47425921    -0.93740
O1759       O  0.67309176  0.14405811  0.46929980    -0.92520
C1760       C  0.63448444  0.99477595  0.48852526     1.16540
H1761       H  0.75230473  0.11161525  0.41473940     0.32480
H1762       H  0.62706189  0.10429861  0.41050172     0.43330
H1763       H  0.63211340  0.48230856  0.41929316     0.36860
H1764       H  0.66654067  0.05368264  0.30132468     0.33340
H1765       H  0.70840003  0.19640944  0.42272721     0.25130
H1766       H  0.59435760  0.07882938  0.28446355     0.31060
H1767       H  0.59152206  0.46049518  0.29603585     0.36970
H1768       H  0.74471670  0.16857716  0.47537980     0.31430
H1769       H  0.73241664  0.05615788  0.49524203     0.30310
H1770       H  0.72554487  0.50018776  0.46120130     0.31990
H1771       H  0.62239172  0.43425399  0.37765089     0.30960
H1772       H  0.64826683  0.12606957  0.46960719     0.34960
H1773       H  0.61048629  0.05719761  0.49158859     0.27690
H1774       H  0.77464076  0.11268481  0.29045460     0.31920
H1775       H  0.64943102  0.46027755  0.29694739     0.34770
H1776       H  0.76082807  0.08214460  0.46995473     0.27390
H1777       H  0.58985232  0.06945306  0.46890314     0.40260
H1778       H  0.66462789  0.15931586  0.32702095     0.30310
H1779       H  0.69825931  0.18311741  0.38505578     0.37930
H1780       H  0.66275351  0.45746105  0.38041658     0.29780
H1781       H  0.60352947  0.04919724  0.28171276     0.29840
H1782       H  0.74710558  0.07310570  0.28576002     0.30110
Zr1783     Zr  0.61501230  0.37290216  0.66215957     2.17510
O1784       O  0.65656196  0.37686222  0.70527154    -0.52250
O1785       O  0.59915609  0.31268996  0.65023925    -0.75450
O1786       O  0.59049298  0.35661016  0.72012096    -0.82240
O1787       O  0.69007852  0.41802895  0.60043003    -0.83980
O1788       O  0.54051526  0.35866093  0.72121252    -0.79610
O1789       O  0.67365268  0.38628023  0.64959044    -0.91240
O1790       O  0.56627109  0.29498104  0.60195531    -0.77200
O1791       O  0.55529501  0.34288584  0.64680382    -0.86700
O1792       O  0.61347076  0.36848640  0.60110089    -0.86390
O1793       O  0.59381158  0.40997522  0.68233828    -0.73140
O1794       O  0.64619439  0.43142021  0.64014702    -0.85280
Zr1795     Zr  0.56147630  0.43264928  0.58363339     2.26420
Zr1796     Zr  0.53385063  0.37969176  0.66608713     2.06270
Zr1797     Zr  0.64333474  0.42624252  0.57894741     2.10050
Zr1798     Zr  0.55392162  0.33968508  0.58570161     1.78760
O1799       O  0.70112375  0.47468462  0.56746267    -0.94080
O1800       O  0.49734182  0.29012587  0.59926587    -0.41890
O1801       O  0.58376208  0.39713315  0.56210750    -0.78520
O1802       O  0.53038762  0.37433255  0.60501747    -0.97210
O1803       O  0.56359386  0.43752033  0.64435863    -0.90510
O1804       O  0.62128371  0.46218537  0.59883650    -0.93360
C1805       C  0.58271995  0.29045609  0.62637266     1.00400
C1806       C  0.69551329  0.40278258  0.62569863     1.13330
C1807       C  0.56419379  0.35477669  0.73575171     1.04110
O1808       O  0.98109225  0.32397333  0.67325478    -0.95510
O1809       O  0.98644265  0.38730218  0.64668176    -0.91250
O1810       O  0.50311602  0.42050091  0.59835119    -0.84400
C1811       C  0.98098897  0.40298844  0.62194283     1.10750
O1812       O  0.66576537  0.48276622  0.70497469    -0.97480
Zr1813     Zr  0.62320935  0.46712697  0.65917875     1.88940
O1814       O  0.56940417  0.48921025  0.59711858    -0.74130
O1815       O  0.51828066  0.40784024  0.71058269    -0.53390
O1816       O  0.60405216  0.48119526  0.71225716    -0.98070
O1817       O  0.67821540  0.01832927  0.64437752    -0.55290
O1818       O  0.60506393  0.00852774  0.64350223    -0.74650
C1819       C  0.58599068  0.01157625  0.62063825     0.97690
O1820       O  0.52590015  0.41891014  0.53270765    -0.63470
O1821       O  0.64680327  0.39374097  0.53034973    -0.58270
O1822       O  0.59429553  0.46536037  0.53336928    -0.94960
O1823       O  0.64362985  0.46201121  0.53107315    -0.93380
O1824       O  0.57341830  0.32473305  0.53343891    -0.93740
O1825       O  0.51238357  0.32300751  0.53905502    -0.92520
C1826       C  0.62340858  0.47259336  0.51957023     1.16540
H1827       H  0.62450072  0.35579438  0.59324576     0.32480
H1828       H  0.50652072  0.36301765  0.59762296     0.43330
H1829       H  0.63355561  0.48505625  0.58883357     0.36860
H1830       H  0.59668486  0.41361516  0.70676574     0.33340
H1831       H  0.99595243  0.27080811  0.58547227     0.25130
H1832       H  0.49943606  0.38858321  0.72365027     0.31060
H1833       H  0.61476664  0.00674915  0.71210852     0.36970
H1834       H  0.55995738  0.29909665  0.53235804     0.31430
H1835       H  0.66048254  0.41153781  0.51289961     0.30310
H1836       H  0.70917957  0.46752143  0.54701921     0.31990
H1837       H  0.67201773  0.03330364  0.63095191     0.30960
H1838       H  0.00553017  0.34097973  0.53874484     0.34960
H1839       H  0.53696110  0.41026904  0.51650480     0.27690
H1840       H  0.64564849  0.35432709  0.71741898     0.31920
H1841       H  0.67288030  0.00695261  0.71128067     0.34770
H1842       H  0.66233391  0.38517114  0.53809815     0.27390
H1843       H  0.00408491  0.39783462  0.53925041     0.40260
H1844       H  0.98909513  0.30794305  0.68086365     0.30310
H1845       H  0.49937618  0.28399776  0.62321340     0.37930
H1846       H  0.68897817  0.00998059  0.62749563     0.29780
H1847       H  0.53830136  0.41807495  0.72646271     0.29840
H1848       H  0.65778722  0.39390319  0.72231079     0.30110
Zr1849     Zr  0.61320758  0.20712868  0.66219330     2.17510
O1850       O  0.60880979  0.24442692  0.70534256    -0.52250
O1851       O  0.67342306  0.25155800  0.65041837    -0.75450
O1852       O  0.62953836  0.19893862  0.72014103    -0.82240
O1853       O  0.56817230  0.23711318  0.60047706    -0.83980
O1854       O  0.62735877  0.14684783  0.72126320    -0.79610
O1855       O  0.60002183  0.25250108  0.64958031    -0.91240
O1856       O  0.69125432  0.23630617  0.60227502    -0.77200
O1857       O  0.64328822  0.17749907  0.64683587    -0.86700
O1858       O  0.61765033  0.21005948  0.60113797    -0.86390
O1859       O  0.57616202  0.14882295  0.68231159    -0.73140
O1860       O  0.55471070  0.17978009  0.64011584    -0.85280
Zr1861     Zr  0.55355434  0.09391146  0.58356723     2.26420
Zr1862     Zr  0.60650346  0.11921405  0.66606113     2.06270
Zr1863     Zr  0.55992005  0.18215225  0.57891351     2.10050
Zr1864     Zr  0.64649361  0.17937486  0.58573635     1.78760
O1865       O  0.51164483  0.19170124  0.56724995    -0.94080
O1866       O  0.69591540  0.17204907  0.59901086    -0.41890
O1867       O  0.58906724  0.15174296  0.56208038    -0.78520
O1868       O  0.61186362  0.12115843  0.60499249    -0.97210
O1869       O  0.54868728  0.09112252  0.64429288    -0.90510
O1870       O  0.52399089  0.12413838  0.59877766    -0.93360
C1871       C  0.69572071  0.25731509  0.62663853     1.00400
C1872       C  0.58348456  0.25783434  0.62571072     1.13330
C1873       C  0.63128802  0.17443679  0.73579161     1.04110
O1874       O  0.66230887  0.12235760  0.67313923    -0.95510
O1875       O  0.59883300  0.06418210  0.64658615    -0.91250
O1876       O  0.56565282  0.04766812  0.59823721    -0.84400
C1877       C  0.58314340  0.04304219  0.62184037     1.10750
O1878       O  0.50335339  0.14794501  0.70490787    -0.97480
Zr1879     Zr  0.51903091  0.12106776  0.65911376     1.88940
O1880       O  0.49703566  0.04517830  0.59704303    -0.74130
O1881       O  0.57854207  0.07540426  0.71051696    -0.53390
O1882       O  0.50486410  0.08783383  0.71219596    -0.98070
O1883       O  0.96781615  0.12477377  0.64415823    -0.55290
O1884       O  0.97772897  0.06148632  0.64345104    -0.74650
C1885       C  0.97468893  0.03936724  0.62058875     0.97690
O1886       O  0.56751189  0.07233900  0.53261090    -0.63470
O1887       O  0.59254232  0.21808752  0.53034433    -0.58270
O1888       O  0.52074539  0.09391725  0.53333232    -0.94960
O1889       O  0.52404199  0.14658165  0.53108780    -0.93380
O1890       O  0.66170652  0.21432326  0.53379383    -0.93740
O1891       O  0.66302188  0.15475516  0.53877635    -0.92520
C1892       C  0.51345499  0.11577204  0.51956957     1.16540
H1893       H  0.63035497  0.23379454  0.59331075     0.32480
H1894       H  0.62318749  0.10862228  0.59758673     0.43330
H1895       H  0.50112243  0.11352313  0.58876923     0.36860
H1896       H  0.57250025  0.14803724  0.70673558     0.33340
H1897       H  0.71529039  0.19010277  0.58537019     0.25130
H1898       H  0.59785246  0.07601410  0.72366034     0.31060
H1899       H  0.97930583  0.07302088  0.71202271     0.36970
H1900       H  0.68733675  0.22634206  0.53271130     0.31430
H1901       H  0.57481101  0.21376597  0.51274703     0.30310
H1902       H  0.51891258  0.20693191  0.54681088     0.31990
H1903       H  0.95318074  0.10390857  0.63018828     0.30960
H1904       H  0.64543945  0.12979264  0.53883264     0.34960
H1905       H  0.57620763  0.09212694  0.51650555     0.27690
H1906       H  0.63126552  0.25608290  0.71763192     0.31920
H1907       H  0.97909765  0.13093641  0.71105776     0.34770
H1908       H  0.60088872  0.24218446  0.53797796     0.27390
H1909       H  0.58857113  0.07160132  0.53921576     0.40260
H1910       H  0.67821622  0.14629942  0.68108983     0.30310
H1911       H  0.70199700  0.17994448  0.62303649     0.37930
H1912       H  0.97631263  0.14430125  0.62775096     0.29780
H1913       H  0.56809875  0.08501919  0.72634025     0.29840
H1914       H  0.59169982  0.22847609  0.72225686     0.30110
Zr1915     Zr  0.89143528  0.09618632  0.34596391     2.17510
O1916       O  0.89571258  0.13787526  0.30286231    -0.52250
O1917       O  0.83121863  0.08035710  0.35777640    -0.75450
O1918       O  0.87510873  0.07173457  0.28799210    -0.82240
O1919       O  0.93643418  0.17116938  0.40777461    -0.83980
O1920       O  0.87734039  0.02185291  0.28681648    -0.79610
O1921       O  0.90469611  0.15476820  0.35860354    -0.91240
O1922       O  0.81347297  0.04742271  0.40602323    -0.77200
O1923       O  0.86139740  0.03644739  0.36124528    -0.86700
O1924       O  0.88695340  0.09458981  0.40701813    -0.86390
O1925       O  0.92850988  0.07498797  0.32579181    -0.73140
O1926       O  0.94992462  0.12734548  0.36804981    -0.85280
Zr1927     Zr  0.95114519  0.04263948  0.42451438     2.26420
Zr1928     Zr  0.89821777  0.01501194  0.34198967     2.06270
Zr1929     Zr  0.94468497  0.12444204  0.42924406     2.10050
Zr1930     Zr  0.85813666  0.03502221  0.42234095     1.78760
O1931       O  0.99297816  0.18228043  0.44087338    -0.94080
O1932       O  0.80861523  0.47845584  0.40863084    -0.41890
O1933       O  0.91556324  0.06485583  0.44602181    -0.78520
O1934       O  0.89284344  0.01154234  0.40305958    -0.97210
O1935       O  0.95602648  0.04476132  0.36378554    -0.90510
O1936       O  0.98067102  0.10244793  0.40933470    -0.93360
C1937       C  0.80896772  0.06390059  0.38161874     1.00400
C1938       C  0.92118750  0.17661291  0.38251038     1.13330
C1939       C  0.87337124  0.04550189  0.27231582     1.04110
O1940       O  0.84243850  0.46231335  0.33485174    -0.95510
O1941       O  0.90588073  0.46763111  0.36143682    -0.91250
O1942       O  0.93902797  0.48428605  0.40981000    -0.84400
C1943       C  0.92154309  0.46216757  0.38619930     1.10750
O1944       O  0.00123673  0.14695792  0.30323224    -0.97480
Zr1945     Zr  0.98563723  0.10437750  0.34899285     1.88940
O1946       O  0.00768610  0.05051255  0.41103013    -0.74130
O1947       O  0.92620415  0.99924600  0.29749487    -0.53390
O1948       O  0.99963787  0.08515775  0.29591505    -0.98070
O1949       O  0.53690520  0.15937262  0.36369711    -0.55290
O1950       O  0.52700220  0.08618372  0.36466008    -0.74650
C1951       C  0.53004617  0.06709526  0.38750761     0.97690
O1952       O  0.93725242  0.50706515  0.47543360    -0.63470
O1953       O  0.91207646  0.12769300  0.47785507    -0.58270
O1954       O  0.98393477  0.07549702  0.47476866    -0.94960
O1955       O  0.98056786  0.12482126  0.47706458    -0.93380
O1956       O  0.84307207  0.05439808  0.47461547    -0.93740
O1957       O  0.84131266  0.99338304  0.46890880    -0.92520
C1958       C  0.99119090  0.10462821  0.48855704     1.16540
H1959       H  0.87424815  0.10560719  0.41486928     0.32480
H1960       H  0.88152978  0.48767174  0.41043632     0.43330
H1961       H  0.00354497  0.11472732  0.41933260     0.36860
H1962       H  0.93216867  0.07789165  0.30136897     0.33340
H1963       H  0.78926271  0.47703882  0.42238286     0.25130
H1964       H  0.90689526  0.48049822  0.28437751     0.31060
H1965       H  0.52519066  0.09585740  0.29604685     0.36970
H1966       H  0.81743126  0.04097184  0.47561210     0.31430
H1967       H  0.92983514  0.14129913  0.49536451     0.30310
H1968       H  0.98574393  0.19024292  0.46133534     0.31990
H1969       H  0.55210519  0.15315067  0.37668388     0.30960
H1970       H  0.85916333  0.48636896  0.46912467     0.34960
H1971       H  0.92861845  0.01816815  0.49159307     0.27690
H1972       H  0.87320734  0.12707569  0.29066300     0.31920
H1973       H  0.52536140  0.15395326  0.29678957     0.34770
H1974       H  0.90352131  0.14325472  0.47017051     0.27390
H1975       H  0.91616243  0.48527985  0.46884947     0.40260
H1976       H  0.82651794  0.47033324  0.32691966     0.30310
H1977       H  0.80253972  0.48052502  0.38467237     0.37930
H1978       H  0.52871955  0.16995699  0.38095068     0.29780
H1979       H  0.93657061  0.01929115  0.28164986     0.29840
H1980       H  0.91274874  0.13902106  0.28586339     0.30110
Zr1981     Zr  0.89172340  0.42472953  0.92613052     2.17510
O1982       O  0.91700685  0.46031509  0.97670650    -0.52250
O1983       O  0.93995179  0.41566834  0.91364612    -0.75450
O1984       O  0.88985795  0.39026596  0.97550843    -0.82240
O1985       O  0.92098483  0.50098942  0.86546380    -0.83980
O1986       O  0.83753142  0.34057880  0.97680044    -0.79610
O1987       O  0.93703066  0.48405482  0.91390070    -0.91240
O1988       O  0.92310861  0.37837531  0.86859507    -0.77200
O1989       O  0.86134120  0.36505927  0.91073933    -0.86700
O1990       O  0.89537610  0.42335350  0.86532481    -0.86390
O1991       O  0.83362836  0.40267115  0.94699161    -0.73140
O1992       O  0.86523272  0.45632059  0.90431675    -0.85280
Zr1993     Zr  0.77938504  0.37142757  0.84622984     2.26420
Zr1994     Zr  0.80296961  0.34312110  0.92958597     2.06270
Zr1995     Zr  0.86763568  0.45339203  0.84346180     2.10050
Zr1996     Zr  0.86524684  0.36371743  0.85028902     1.78760
O1997       O  0.86113421  0.50407040  0.83572798    -0.94080
O1998       O  0.85864331  0.30755592  0.86494724    -0.41890
O1999       O  0.83791756  0.39379478  0.82727744    -0.78520
O2000       O  0.80624683  0.33998973  0.86846456    -0.97210
O2001       O  0.77598109  0.37348523  0.90710925    -0.90510
O2002       O  0.80928569  0.43115711  0.86177998    -0.93360
C2003       C  0.94526055  0.39775166  0.89126555     1.00400
C2004       C  0.94171451  0.00639077  0.89054005     1.13330
C2005       C  0.86810767  0.36080487  0.98864613     1.04110
O2006       O  0.79203872  0.28466685  0.94020161    -0.95510
O2007       O  0.74698733  0.29742141  0.90888981    -0.91250
O2008       O  0.73096682  0.31497533  0.86093848    -0.84400
C2009       C  0.72577357  0.29268544  0.88431922     1.10750
O2010       O  0.83664687  0.47751408  0.96623638    -0.97480
Zr2011     Zr  0.80673403  0.43299545  0.92281801     1.88940
O2012       O  0.73320272  0.38440245  0.85870331    -0.74130
O2013       O  0.76709779  0.33995049  0.97813838    -0.53390
O2014       O  0.77460507  0.41488801  0.97654511    -0.98070
O2015       O  0.80845318  0.48744282  0.90941584    -0.55290
O2016       O  0.74802309  0.41633507  0.90776235    -0.74650
C2017       C  0.72692585  0.39967963  0.88341545     0.97690
O2018       O  0.75534796  0.33303819  0.79648450    -0.63470
O2019       O  0.91106039  0.47184932  0.79815012    -0.58270
O2020       O  0.78586201  0.39792336  0.78968929    -0.94960
O2021       O  0.84107103  0.44344183  0.78752327    -0.93380
O2022       O  0.90033426  0.38299655  0.79840943    -0.93740
O2023       O  0.84176869  0.32345850  0.80230555    -0.92520
C2024       C  0.81204749  0.42199743  0.77354543     1.16540
H2025       H  0.91914939  0.43467160  0.85762547     0.32480
H2026       H  0.79351522  0.31613312  0.86102675     0.43330
H2027       H  0.79888243  0.44306884  0.85062331     0.36860
H2028       H  0.83383954  0.40435407  0.97169661     0.33340
H2029       H  0.87698649  0.30636881  0.85171181     0.25130
H2030       H  0.75223968  0.31482848  0.98260533     0.31060
H2031       H  0.76115458  0.42708163  0.97720626     0.36970
H2032       H  0.91383355  0.37084200  0.79862563     0.31430
H2033       H  0.91803055  0.49634947  0.79362438     0.30310
H2034       H  0.87844964  0.01806073  0.81801433     0.31990
H2035       H  0.78801081  0.48584662  0.92118808     0.30960
H2036       H  0.81663756  0.31534670  0.80236304     0.34960
H2037       H  0.77569795  0.33868125  0.78189956     0.27690
H2038       H  0.93527696  0.45534681  0.98436047     0.31920
H2039       H  0.82000304  0.48490176  0.97336178     0.34770
H2040       H  0.93170389  0.47289426  0.80885706     0.27390
H2041       H  0.74799313  0.30922624  0.80433286     0.40260
H2042       H  0.80430276  0.28028685  0.92141941     0.30310
H2043       H  0.86636232  0.30987903  0.88909461     0.37930
H2044       H  0.80292540  0.48654807  0.88475424     0.29780
H2045       H  0.78313561  0.34869337  0.99793638     0.29840
H2046       H  0.89872109  0.44989479  0.99446738     0.30110
Zr2047     Zr  0.94311196  0.37310679  0.08197899     2.17510
O2048       O  0.97877243  0.39830641  0.03143226    -0.52250
O2049       O  0.93413416  0.42139256  0.09437230    -0.75450
O2050       O  0.90872157  0.37132912  0.03258369    -0.82240
O2051       O  0.51934028  0.40227369  0.14273145    -0.83980
O2052       O  0.85897312  0.31904988  0.03128527    -0.79610
O2053       O  0.50244450  0.41835177  0.09428798    -0.91240
O2054       O  0.89682625  0.40457606  0.13940539    -0.77200
O2055       O  0.88342837  0.34278302  0.09733271    -0.86700
O2056       O  0.94170209  0.37676114  0.14278323    -0.86390
O2057       O  0.92095923  0.31500645  0.06109673    -0.73140
O2058       O  0.97463761  0.34656967  0.10382517    -0.85280
Zr2059     Zr  0.88969141  0.26075487  0.16183907     2.26420
Zr2060     Zr  0.86140319  0.28439614  0.07848761     2.06270
Zr2061     Zr  0.97166727  0.34895956  0.16468285     2.10050
Zr2062     Zr  0.88206032  0.34668703  0.15777507     1.78760
O2063       O  0.52235770  0.34250055  0.17252389    -0.94080
O2064       O  0.82594774  0.34016599  0.14303737    -0.41890
O2065       O  0.91206353  0.31928432  0.18082757    -0.78520
O2066       O  0.85829656  0.28767202  0.13960800    -0.97210
O2067       O  0.89173980  0.25737339  0.10095605    -0.90510
O2068       O  0.94941564  0.29062374  0.14630286    -0.93360
C2069       C  0.91622090  0.42672024  0.11673500     1.00400
C2070       C  0.52476602  0.42300771  0.11765347     1.13330
C2071       C  0.87924763  0.34961934  0.01944285     1.04110
O2072       O  0.80297314  0.27359757  0.06800775    -0.95510
O2073       O  0.81571998  0.22837333  0.09917306    -0.91250
O2074       O  0.83328164  0.21232493  0.14710421    -0.84400
C2075       C  0.81099468  0.20713942  0.12372478     1.10750
O2076       O  0.99562535  0.31795741  0.04171248    -0.97480
Zr2077     Zr  0.95125120  0.28808639  0.08526025     1.88940
O2078       O  0.90268126  0.21456687  0.14935238    -0.74130
O2079       O  0.85806817  0.24852122  0.02987024    -0.53390
O2080       O  0.93304553  0.25585277  0.03159278    -0.98070
O2081       O  0.50574753  0.28988785  0.09859561    -0.55290
O2082       O  0.93466816  0.22941225  0.10033208    -0.74650
C2083       C  0.91800242  0.20830892  0.12466479     0.97690
O2084       O  0.85114619  0.23671675  0.21147228    -0.63470
O2085       O  0.98997917  0.39236513  0.21000444    -0.58270
O2086       O  0.91616065  0.26712737  0.21838103    -0.94960
O2087       O  0.96172942  0.32230493  0.22057906    -0.93380
O2088       O  0.90130281  0.38177713  0.20965865    -0.93740
O2089       O  0.84174237  0.32326859  0.20571449    -0.92520
C2090       C  0.94027319  0.29327494  0.23453688     1.16540
H2091       H  0.95303606  0.40053625  0.15048142     0.32480
H2092       H  0.83443888  0.27494946  0.14704092     0.43330
H2093       H  0.96131915  0.28020456  0.15744637     0.36860
H2094       H  0.92264401  0.31521984  0.03639200     0.33340
H2095       H  0.82474843  0.35848394  0.15630903     0.25130
H2096       H  0.83293962  0.23383529  0.02532471     0.31060
H2097       H  0.94529912  0.24246135  0.03089691     0.36970
H2098       H  0.88921042  0.39533587  0.20938209     0.31430
H2099       H  0.01442920  0.39924465  0.21469200     0.30310
H2100       H  0.53621096  0.35968099  0.19039907     0.31990
H2101       H  0.50413030  0.26940506  0.08688969     0.30960
H2102       H  0.83350797  0.29811151  0.20560050     0.34960
H2103       H  0.85696295  0.25701123  0.22621444     0.27690
H2104       H  0.97386654  0.41661097  0.02375109     0.31920
H2105       H  0.00307290  0.30134672  0.03463587     0.34770
H2106       H  0.99117561  0.41305612  0.19924527     0.27390
H2107       H  0.82741987  0.22968159  0.20358088     0.40260
H2108       H  0.79866103  0.28587550  0.08682579     0.30310
H2109       H  0.82832783  0.34795036  0.11890919     0.37930
H2110       H  0.50491795  0.28445770  0.12327677     0.29780
H2111       H  0.86697445  0.26460408  0.01011710     0.29840
H2112       H  0.96833455  0.38001781  0.01367365     0.30110
Zr2113     Zr  0.61258484  0.03513712  0.08197650     2.17510
O2114       O  0.58753167  0.04572277  0.03140097    -0.52250
O2115       O  0.56424843  0.47788767  0.09434079    -0.75450
O2116       O  0.61426911  0.00245413  0.03260229    -0.82240
O2117       O  0.58343952  0.08217586  0.14275459    -0.83980
O2118       O  0.66654361  0.00498992  0.03130792    -0.79610
O2119       O  0.56734690  0.04921710  0.09429587    -0.91240
O2120       O  0.58109022  0.45733809  0.13930368    -0.77200
O2121       O  0.64285841  0.00573159  0.09732033    -0.86700
O2122       O  0.60892248  0.03005255  0.14277663    -0.86390
O2123       O  0.67069319  0.07106383  0.06111750    -0.73140
O2124       O  0.63917228  0.09320204  0.10383980    -0.85280
Zr2125     Zr  0.72494219  0.09394981  0.16184417     2.26420
Zr2126     Zr  0.70125305  0.04206303  0.07848559     2.06270
Zr2127     Zr  0.63677115  0.08781781  0.16469976     2.10050
Zr2128     Zr  0.63894438  0.00043903  0.15775872     1.78760
O2129       O  0.64319507  0.14494315  0.17264065    -0.94080
O2130       O  0.64543641  0.45082205  0.14310469    -0.41890
O2131       O  0.66639972  0.05784226  0.18083000    -0.78520
O2132       O  0.69796774  0.03563852  0.13959819    -0.97210
O2133       O  0.72833570  0.09942400  0.10097177    -0.90510
O2134       O  0.69513358  0.12387249  0.14634599    -0.93360
C2135       C  0.55893557  0.45461884  0.11666512     1.00400
C2136       C  0.56269684  0.06687499  0.11767158     1.13330
C2137       C  0.63597262  0.99468576  0.01947037     1.04110
O2138       O  0.71195526  0.49438268  0.06803793    -0.95510
O2139       O  0.75730324  0.05241794  0.09910687    -0.91250
O2140       O  0.77335204  0.08596043  0.14708912    -0.84400
C2141       C  0.77854231  0.06890172  0.12366833     1.10750
O2142       O  0.66823571  0.14305090  0.04154248    -0.97480
Zr2143     Zr  0.69767191  0.12827255  0.08531220     1.88940
O2144       O  0.77119746  0.15312084  0.14944749    -0.74130
O2145       O  0.73709125  0.07452602  0.02981818    -0.53390
O2146       O  0.73012517  0.14237180  0.03177916    -0.98070
O2147       O  0.69549604  0.18077593  0.09861970    -0.55290
O2148       O  0.75630026  0.17036827  0.10053387    -0.74650
C2149       C  0.77742943  0.17475462  0.12482127     0.97690
O2150       O  0.74890128  0.07928086  0.21141984    -0.63470
O2151       O  0.59338797  0.06269495  0.21003456    -0.58270
O2152       O  0.71866391  0.11410588  0.21836208    -0.94960
O2153       O  0.66348887  0.10448681  0.22058359    -0.93380
O2154       O  0.60371627  0.48456393  0.20954675    -0.93740
O2155       O  0.66228102  0.48354140  0.20575664    -0.92520
C2156       C  0.69252434  0.11205638  0.23452777     1.16540
H2157       H  0.58514560  0.01761688  0.15046745     0.32480
H2158       H  0.71066637  0.02447884  0.14702557     0.43330
H2159       H  0.70558944  0.14619845  0.15749498     0.36860
H2160       H  0.67048513  0.07255153  0.03641385     0.33340
H2161       H  0.62707844  0.43130727  0.15634915     0.25130
H2162       H  0.75165272  0.06396546  0.02519076     0.31060
H2163       H  0.74361091  0.16802022  0.03116441     0.36970
H2164       H  0.59017681  0.45890781  0.20926995     0.31430
H2165       H  0.58649749  0.08025400  0.21472828     0.30310
H2166       H  0.62616642  0.14162242  0.19067935     0.31990
H2167       H  0.71667985  0.19991283  0.08811891     0.30960
H2168       H  0.68732757  0.50086215  0.20605991     0.34960
H2169       H  0.72861144  0.06492227  0.22621029     0.27690
H2170       H  0.56918519  0.02253233  0.02370604     0.31920
H2171       H  0.68490268  0.16718337  0.03471406     0.34770
H2172       H  0.57269789  0.04318778  0.19928018     0.27390
H2173       H  0.75574500  0.06245617  0.20349615     0.40260
H2174       H  0.69946521  0.47769691  0.08672784     0.30310
H2175       H  0.63770019  0.44542596  0.11896176     0.37930
H2176       H  0.69944253  0.18459765  0.12357765     0.29780
H2177       H  0.72096406  0.06743868  0.01010583     0.29840
H2178       H  0.60583585  0.05352855  0.01366577     0.30110
Zr2179     Zr  0.56100718  0.43197027  0.92608397     2.17510
O2180       O  0.52524374  0.42134472  0.97657757    -0.52250
O2181       O  0.57001746  0.48927123  0.91371676    -0.75450
O2182       O  0.59532739  0.46457966  0.97553188    -0.82240
O2183       O  0.98487954  0.38500753  0.86518909    -0.83980
O2184       O  0.64507674  0.46206705  0.97685948    -0.79610
O2185       O  0.50170838  0.41790198  0.91369126    -0.91240
O2186       O  0.60740318  0.00981874  0.86874336    -0.77200
O2187       O  0.62070538  0.46137921  0.91080587    -0.86700
O2188       O  0.56248186  0.43707039  0.86527965    -0.86390
O2189       O  0.58314413  0.39601387  0.94697039    -0.73140
O2190       O  0.52954357  0.37390459  0.90418615    -0.85280
Zr2191     Zr  0.61464395  0.37322649  0.84627706     2.26420
Zr2192     Zr  0.64272984  0.42503162  0.92967692     2.06270
Zr2193     Zr  0.53257065  0.37930597  0.84333473     2.10050
Zr2194     Zr  0.62214595  0.46670597  0.85036506     1.78760
O2195       O  0.98197424  0.32205489  0.83560206    -0.94080
O2196       O  0.67824283  0.01631990  0.86513377    -0.41890
O2197       O  0.59220289  0.40931551  0.82727418    -0.78520
O2198       O  0.64595100  0.43151437  0.86856983    -0.97210
O2199       O  0.61248877  0.36768565  0.90714679    -0.90510
O2200       O  0.55488376  0.34328008  0.86170244    -0.93360
C2201       C  0.58798510  0.01254892  0.89138911     1.00400
C2202       C  0.97942191  0.40028437  0.89028131     1.13330
C2203       C  0.62479839  0.47235249  0.98868582     1.04110
O2204       O  0.70111069  0.47268968  0.94034260    -0.95510
O2205       O  0.68854965  0.41487789  0.90908988    -0.91250
O2206       O  0.67108147  0.38133794  0.86110692    -0.84400
C2207       C  0.69333491  0.39843462  0.88451856     1.10750
O2208       O  0.50832351  0.32401512  0.96606904    -0.97480
Zr2209     Zr  0.55294433  0.33881461  0.92273103     1.88940
O2210       O  0.60169781  0.31404897  0.85864577    -0.74130
O2211       O  0.64595315  0.39241937  0.97828474    -0.53390
O2212       O  0.57108243  0.32482684  0.97645860    -0.98070
O2213       O  0.49859389  0.28600418  0.90922956    -0.55290
O2214       O  0.56964974  0.29682624  0.90762415    -0.74650
C2215       C  0.58635177  0.29243376  0.88329966     0.97690
O2216       O  0.65326355  0.38788361  0.79668825    -0.63470
O2217       O  0.51409937  0.40413568  0.79790639    -0.58270
O2218       O  0.58831224  0.35313128  0.78971055    -0.94960
O2219       O  0.54275214  0.36273863  0.78745076    -0.93380
O2220       O  0.60289370  0.48258813  0.79851431    -0.93740
O2221       O  0.66245040  0.48362538  0.80241398    -0.92520
C2222       C  0.56423937  0.35519075  0.77352193     1.16540
H2223       H  0.55114828  0.44950514  0.85757015     0.32480
H2224       H  0.66982290  0.44269092  0.86117873     0.43330
H2225       H  0.54302425  0.32097073  0.85052306     0.36860
H2226       H  0.58141737  0.39451047  0.97167184     0.33340
H2227       H  0.67944477  0.03583760  0.85186053     0.25130
H2228       H  0.67107048  0.40287563  0.98289696     0.31060
H2229       H  0.55901784  0.29918204  0.97705618     0.36970
H2230       H  0.61501698  0.00824179  0.79878751     0.31430
H2231       H  0.48953956  0.38667359  0.79353946     0.30310
H2232       H  0.96829938  0.32520054  0.81739908     0.31990
H2233       H  0.50010647  0.26721672  0.92122968     0.30960
H2234       H  0.67090000  0.46687829  0.80268498     0.34960
H2235       H  0.64745817  0.40238836  0.78197751     0.27690
H2236       H  0.53012394  0.44453440  0.98430757     0.31920
H2237       H  0.50112003  0.30005137  0.97329706     0.34770
H2238       H  0.51325217  0.42388544  0.80849998     0.27390
H2239       H  0.67697656  0.40456837  0.80462406     0.40260
H2240       H  0.70536995  0.48943122  0.92169179     0.30310
H2241       H  0.67584278  0.02171543  0.88925958     0.37930
H2242       H  0.49967962  0.28125263  0.88463395     0.29780
H2243       H  0.63698534  0.39955090  0.99801992     0.29840
H2244       H  0.53565903  0.41346500  0.99432875     0.30110
Zr2245     Zr  0.55390159  0.09419308  0.92615988     2.17510
O2246       O  0.56460106  0.06925712  0.97675594    -0.52250
O2247       O  0.49663035  0.04585533  0.91383607    -0.75450
O2248       O  0.52119255  0.09588628  0.97552088    -0.82240
O2249       O  0.60078890  0.06493704  0.86534081    -0.83980
O2250       O  0.52370228  0.14814887  0.97678224    -0.79610
O2251       O  0.56786950  0.04888046  0.91382284    -0.91240
O2252       O  0.97606904  0.06269356  0.86887976    -0.77200
O2253       O  0.52448318  0.12444339  0.91078913    -0.86700
O2254       O  0.54881184  0.09050039  0.86535727    -0.86390
O2255       O  0.58985160  0.15231734  0.94698313    -0.73140
O2256       O  0.61196544  0.12078636  0.90427343    -0.85280
Zr2257     Zr  0.61265374  0.20649866  0.84621130     2.26420
Zr2258     Zr  0.56081793  0.18284046  0.92961214     2.06270
Zr2259     Zr  0.60656695  0.11833856  0.84341404     2.10050
Zr2260     Zr  0.51918411  0.12049788  0.85034812     1.78760
O2261       O  0.66371769  0.12478031  0.83564238    -0.94080
O2262       O  0.96957789  0.12705496  0.86488995    -0.41890
O2263       O  0.57656993  0.14793996  0.82725287    -0.78520
O2264       O  0.55436150  0.17952327  0.86849544    -0.97210
O2265       O  0.61816363  0.20993961  0.90708285    -0.90510
O2266       O  0.64260785  0.17672255  0.86171669    -0.93360
C2267       C  0.97334884  0.04054573  0.89152354     1.00400
C2268       C  0.58548063  0.04419573  0.89042288     1.13330
C2269       C  0.51339685  0.11758174  0.98863205     1.04110
O2270       O  0.51319454  0.19362953  0.94015663    -0.95510
O2271       O  0.57110143  0.23884239  0.90895359    -0.91250
O2272       O  0.60460454  0.25487633  0.86094756    -0.84400
C2273       C  0.58755034  0.26006369  0.88437498     1.10750
O2274       O  0.66199930  0.14988766  0.96637162    -0.97480
Zr2275     Zr  0.64704855  0.17931470  0.92274433     1.88940
O2276       O  0.67179364  0.25282448  0.85856382    -0.74130
O2277       O  0.59337939  0.21868397  0.97824313    -0.53390
O2278       O  0.66110620  0.21170125  0.97632010    -0.98070
O2279       O  0.69965706  0.17735537  0.90938446    -0.55290
O2280       O  0.68904264  0.23798254  0.90750928    -0.74650
C2281       C  0.69341539  0.25909639  0.88320937     0.97690
O2282       O  0.59796068  0.23041047  0.79661582    -0.63470
O2283       O  0.58157322  0.07499979  0.79802389    -0.58270
O2284       O  0.63284066  0.20021143  0.78971408    -0.94960
O2285       O  0.62325103  0.14504453  0.78751966    -0.93380
O2286       O  0.50329007  0.08515779  0.79863374    -0.93740
O2287       O  0.50230769  0.14378299  0.80228612    -0.92520
C2288       C  0.63081656  0.17407454  0.77356294     1.16540
H2289       H  0.53637151  0.06671829  0.85767801     0.32480
H2290       H  0.54318403  0.19220296  0.86106177     0.43330
H2291       H  0.66492355  0.18717866  0.85055095     0.36860
H2292       H  0.59135537  0.15212719  0.97168643     0.33340
H2293       H  0.95003701  0.10860035  0.85175202     0.25130
H2294       H  0.58299429  0.23342219  0.98275899     0.31060
H2295       H  0.68675122  0.22530439  0.97688322     0.36970
H2296       H  0.97763294  0.07165106  0.79889438     0.31430
H2297       H  0.59905211  0.06795794  0.79352874     0.30310
H2298       H  0.66045687  0.10780122  0.81756952     0.31990
H2299       H  0.71871768  0.19841374  0.92014710     0.30960
H2300       H  0.51980838  0.16877181  0.80178591     0.34960
H2301       H  0.58364093  0.21011624  0.78181406     0.27690
H2302       H  0.54142513  0.05092363  0.98449623     0.31920
H2303       H  0.68605147  0.16666693  0.97334296     0.34770
H2304       H  0.56190590  0.05437539  0.80868192     0.27390
H2305       H  0.58110039  0.23721164  0.80452659     0.40260
H2306       H  0.99652406  0.18124352  0.92142351     0.30310
H2307       H  0.96424658  0.11948229  0.88908112     0.37930
H2308       H  0.70363262  0.18163090  0.88447907     0.29780
H2309       H  0.58614329  0.20260322  0.99800115     0.29840
H2310       H  0.57243431  0.08759428  0.99446108     0.30110
Zr2311     Zr  0.95055416  0.04253580  0.08193021     2.17510
O2312       O  0.93996838  0.50685523  0.03138052    -0.52250
O2313       O  0.00781872  0.05148996  0.09433559    -0.75450
O2314       O  0.98323823  0.07692108  0.03254184    -0.82240
O2315       O  0.90350533  0.46635077  0.14279573    -0.83980
O2316       O  0.98070512  0.12666102  0.03122130    -0.79610
O2317       O  0.93641489  0.48319115  0.09430826    -0.91240
O2318       O  0.52836783  0.08887336  0.13931167    -0.77200
O2319       O  0.97994747  0.10223397  0.09723119    -0.86700
O2320       O  0.95566524  0.04400889  0.14273181    -0.86390
O2321       O  0.91459916  0.06468324  0.06105769    -0.73140
O2322       O  0.89249401  0.01105317  0.10381990    -0.85280
Zr2323     Zr  0.89175182  0.09609061  0.16179110     2.26060
Zr2324     Zr  0.94359930  0.12426457  0.07838380     2.06270
Zr2325     Zr  0.89790750  0.01407488  0.16467063     2.10050
Zr2326     Zr  0.98527975  0.10367077  0.15766807     1.78760
O2327       O  0.84059982  0.46345757  0.17236501    -0.94080
O2328       O  0.53488967  0.15974260  0.14282528    -0.41890
O2329       O  0.92788945  0.07369819  0.18076357    -0.78520
O2330       O  0.95004516  0.12744295  0.13949743    -0.97210
O2331       O  0.88625281  0.09397845  0.10091204    -0.90510
O2332       O  0.86184469  0.03634725  0.14631515    -0.93360
C2333       C  0.53108588  0.06943731  0.11667496     1.00400
C2334       C  0.91878107  0.46089484  0.11770832     1.13330
C2335       C  0.99101998  0.10639948  0.01940008     1.04110
O2336       O  0.99126614  0.18267991  0.06788778    -0.95510
O2337       O  0.93329179  0.16998855  0.09900334    -0.91250
O2338       O  0.89974599  0.15248316  0.14698032    -0.84400
C2339       C  0.91681741  0.17474256  0.12356932     1.10750
O2340       O  0.84269084  0.48987378  0.04190969    -0.97480
Zr2341     Zr  0.85739813  0.03444674  0.08528067     1.88940
O2342       O  0.83253778  0.08306456  0.14941229    -0.74130
O2343       O  0.91109656  0.12756592  0.02971438    -0.53390
O2344       O  0.84342188  0.05260295  0.03155816    -0.98070
O2345       O  0.80454871  0.48012514  0.09870306    -0.55290
O2346       O  0.81536791  0.05109767  0.10037667    -0.74650
C2347       C  0.81093909  0.06774422  0.12473310     0.97690
O2348       O  0.90638500  0.13473645  0.21136004    -0.63470
O2349       O  0.92291436  0.99572040  0.21003139    -0.58270
O2350       O  0.87176508  0.06972226  0.21838689    -0.94960
O2351       O  0.88129612  0.02411115  0.22057282    -0.93380
O2352       O  0.50118603  0.08448646  0.20954953    -0.93740
O2353       O  0.00224679  0.14402957  0.20558197    -0.92520
C2354       C  0.87378741  0.04560610  0.23454031     1.16540
H2355       H  0.96810067  0.03267558  0.15043852     0.32480
H2356       H  0.96120195  0.15131159  0.14690014     0.43330
H2357       H  0.83953369  0.02446267  0.15748628     0.36860
H2358       H  0.91310210  0.06296896  0.03635514     0.33340
H2359       H  0.55439937  0.16099161  0.15615389     0.25130
H2360       H  0.92162549  0.15268713  0.02508202     0.31060
H2361       H  0.81777599  0.04047220  0.03091445     0.36970
H2362       H  0.52684051  0.09658134  0.20924764     0.31430
H2363       H  0.90524365  0.47105961  0.21447896     0.30310
H2364       H  0.84376298  0.44972434  0.19049075     0.31990
H2365       H  0.78580552  0.48158534  0.08654703     0.30960
H2366       H  0.48552183  0.15250651  0.20529422     0.34960
H2367       H  0.92088834  0.12894139  0.22608450     0.27690
H2368       H  0.96316504  0.51173220  0.02368145     0.31920
H2369       H  0.81872256  0.48263151  0.03466525     0.34770
H2370       H  0.94250904  0.99466326  0.19933458     0.27390
H2371       H  0.92307228  0.15844600  0.20341927     0.40260
H2372       H  0.50799386  0.18687993  0.08653670     0.30310
H2373       H  0.54031457  0.15728498  0.11872619     0.37930
H2374       H  0.79968286  0.48128084  0.12325302     0.29780
H2375       H  0.91820168  0.11854245  0.01000497     0.29840
H2376       H  0.93214727  0.01731200  0.01363361     0.30110
Zr2377     Zr  0.77902086  0.87126451  0.66220170     2.17510
O2378       O  0.74139450  0.82976325  0.70532673    -0.52250
O2379       O  0.73470513  0.88715544  0.65025972    -0.75450
O2380       O  0.78723408  0.89582889  0.72012194    -0.82240
O2381       O  0.74903982  0.79608976  0.60073028    -0.83980
O2382       O  0.83938151  0.94568437  0.72125609    -0.79610
O2383       O  0.73366182  0.81263618  0.64977129    -0.91240
O2384       O  0.74988783  0.91999240  0.60194719    -0.77200
O2385       O  0.80880484  0.93097531  0.64682184    -0.86700
O2386       O  0.77610231  0.87275938  0.60114519    -0.86390
O2387       O  0.83729048  0.89239010  0.68237949    -0.73140
O2388       O  0.80626568  0.83999290  0.64021197    -0.85280
Zr2389     Zr  0.89224575  0.92454909  0.58363180     2.26420
Zr2390     Zr  0.86705300  0.95233919  0.66609286     2.06270
Zr2391     Zr  0.80389807  0.84280602  0.57901264     2.10050
Zr2392     Zr  0.80694583  0.93230141  0.58571755     1.78760
O2393       O  0.79414029  0.78493714  0.56714585    -0.94080
O2394       O  0.81404281  0.98891043  0.59926156    -0.41890
O2395       O  0.83444537  0.90235849  0.56212054    -0.78520
O2396       O  0.86513045  0.95574405  0.60501381    -0.97210
O2397       O  0.89503825  0.92250447  0.64436251    -0.90510
O2398       O  0.86189403  0.86475949  0.59888648    -0.93360
C2399       C  0.72891050  0.90356860  0.62637421     1.00400
C2400       C  0.72833331  0.79071240  0.62596023     1.13330
C2401       C  0.81174794  0.92207243  0.73577233     1.04110
O2402       O  0.86419147  0.00515175  0.67317555    -0.95510
O2403       O  0.92212249  0.99961635  0.64658778    -0.91250
O2404       O  0.93856898  0.98289636  0.59823832    -0.84400
C2405       C  0.94323462  0.50503815  0.62182765     1.10750
O2406       O  0.83795872  0.82036012  0.70501788    -0.97480
Zr2407     Zr  0.86496189  0.86291041  0.65923379     1.88940
O2408       O  0.94086541  0.91662977  0.59715648    -0.74130
O2409       O  0.91081190  0.96802026  0.71057638    -0.53390
O2410       O  0.89815105  0.88204668  0.71234131    -0.98070
O2411       O  0.86115322  0.80790498  0.64445161    -0.55290
O2412       O  0.92453879  0.88106955  0.64360957    -0.74650
C2413       C  0.94665950  0.90010651  0.62072357     0.97690
O2414       O  0.91411983  0.96000394  0.53264816    -0.63470
O2415       O  0.76782598  0.83956245  0.53059717    -0.58270
O2416       O  0.89202735  0.89162288  0.53339996    -0.94960
O2417       O  0.83930196  0.84232373  0.53115181    -0.93380
O2418       O  0.77253789  0.91289850  0.53341850    -0.93740
O2419       O  0.83195744  0.97388896  0.53913240    -0.92520
C2420       C  0.87011025  0.86250239  0.51962523     1.16540
H2421       H  0.75237313  0.86174703  0.59330228     0.32480
H2422       H  0.87771869  0.97960158  0.59759465     0.43330
H2423       H  0.87244986  0.85244729  0.58889025     0.36860
H2424       H  0.83804660  0.88952473  0.70680937     0.33340
H2425       H  0.79611285  0.99030670  0.58547788     0.25130
H2426       H  0.91036110  0.98684172  0.72364682     0.31060
H2427       H  0.91296484  0.87130654  0.71221734     0.36970
H2428       H  0.76042212  0.92641258  0.53232801     0.31430
H2429       H  0.77254116  0.82669161  0.51271326     0.30310
H2430       H  0.77879876  0.77702159  0.54678406     0.31990
H2431       H  0.88223229  0.81409565  0.63086535     0.30960
H2432       H  0.85664110  0.98023088  0.53848099     0.34960
H2433       H  0.89437139  0.94897246  0.51649060     0.27690
H2434       H  0.72982991  0.84071577  0.71750314     0.31920
H2435       H  0.85500596  0.81322289  0.71134787     0.34770
H2436       H  0.74378797  0.82333114  0.53806798     0.27390
H2437       H  0.91497577  0.98187500  0.53917305     0.40260
H2438       H  0.84020316  0.99719633  0.68091008     0.30310
H2439       H  0.80590307  0.98690087  0.62321475     0.37930
H2440       H  0.84191011  0.79704867  0.62771338     0.29780
H2441       H  0.90106876  0.94800356  0.72645848     0.29840
H2442       H  0.75720627  0.82849234  0.72233732     0.30110
Zr2443     Zr  0.88972396  0.76015513  0.34597148     2.17510
O2444       O  0.84827425  0.72233643  0.30289826    -0.52250
O2445       O  0.90561263  0.71583722  0.35793125    -0.75450
O2446       O  0.91416862  0.76842226  0.28797890    -0.82240
O2447       O  0.81455706  0.73026114  0.40744734    -0.83980
O2448       O  0.96406469  0.82052945  0.28683341    -0.79610
O2449       O  0.83106165  0.71489015  0.35837474    -0.91240
O2450       O  0.93839109  0.73097205  0.40628323    -0.77200
O2451       O  0.94944163  0.78991482  0.36132065    -0.86700
O2452       O  0.89125648  0.75724299  0.40703330    -0.86390
O2453       O  0.91083185  0.81842536  0.32581097    -0.73140
O2454       O  0.85846874  0.78740080  0.36801622    -0.85280
Zr2455     Zr  0.94312921  0.87341309  0.42452397     2.26420
Zr2456     Zr  0.97080129  0.84815988  0.34203509     2.06270
Zr2457     Zr  0.86134850  0.78506709  0.42921756     2.10050
Zr2458     Zr  0.95080969  0.78807668  0.42243117     1.78760
O2459       O  0.80350924  0.77528591  0.44129636    -0.94080
O2460       O  0.50734635  0.79504381  0.40878923    -0.41890
O2461       O  0.92091880  0.81561479  0.44605089    -0.78520
O2462       O  0.97426680  0.84625576  0.40310551    -0.97210
O2463       O  0.94099589  0.87616206  0.36379817    -0.90510
O2464       O  0.88331633  0.84306247  0.40934812    -0.93360
C2465       C  0.92198250  0.71001229  0.38184034     1.00400
C2466       C  0.80915027  0.70956935  0.38219115     1.13330
C2467       C  0.94040267  0.79292950  0.27231158     1.04110
O2468       O  0.52353860  0.84517127  0.33489513    -0.95510
O2469       O  0.51813624  0.90321825  0.36151154    -0.91250
O2470       O  0.50147109  0.91970154  0.40987453    -0.84400
C2471       C  0.52359032  0.92434446  0.38626928     1.10750
O2472       O  0.83872878  0.81906471  0.30330369    -0.97480
Zr2473     Zr  0.88137328  0.84609482  0.34901005     1.88940
O2474       O  0.93520773  0.92204461  0.41098728    -0.74130
O2475       O  0.98652131  0.89196100  0.29759459    -0.53390
O2476       O  0.90027626  0.87921387  0.29585161    -0.98070
O2477       O  0.82641687  0.84226836  0.36404977    -0.55290
O2478       O  0.89958126  0.90569393  0.36457818    -0.74650
C2479       C  0.91865750  0.92783123  0.38743669     0.97690
O2480       O  0.97868841  0.89519052  0.47546662    -0.63470
O2481       O  0.85816693  0.74895900  0.47757134    -0.58270
O2482       O  0.91029864  0.87328102  0.47478249    -0.94960
O2483       O  0.86098520  0.82056527  0.47707136    -0.93380
O2484       O  0.93143825  0.75376383  0.47478820    -0.93740
O2485       O  0.99242428  0.81299816  0.46901645    -0.92520
C2486       C  0.88118905  0.85138246  0.48858006     1.16540
H2487       H  0.88023419  0.73351444  0.41487791     0.32480
H2488       H  0.99813570  0.85883955  0.41048855     0.43330
H2489       H  0.87103085  0.85363375  0.41936933     0.36860
H2490       H  0.90793309  0.81919633  0.30138922     0.33340
H2491       H  0.50876424  0.77716334  0.42263804     0.25130
H2492       H  0.00526891  0.89143713  0.28445797     0.31060
H2493       H  0.88948362  0.89398037  0.29601384     0.36970
H2494       H  0.94487511  0.74156716  0.47585733     0.31430
H2495       H  0.84561371  0.75391403  0.49560867     0.30310
H2496       H  0.79566066  0.75993713  0.46165226     0.31990
H2497       H  0.83262430  0.86306053  0.37812856     0.30960
H2498       H  0.49979491  0.83795648  0.46890617     0.34960
H2499       H  0.96760382  0.87547844  0.49165967     0.27690
H2500       H  0.85928300  0.71078925  0.29079078     0.31920
H2501       H  0.83140871  0.83601529  0.29715871     0.34770
H2502       H  0.84166628  0.72495311  0.47021346     0.27390
H2503       H  0.50048759  0.89590420  0.46892141     0.40260
H2504       H  0.51552814  0.82116555  0.32717852     0.30310
H2505       H  0.00524851  0.78679067  0.38486952     0.37930
H2506       H  0.81537848  0.82265787  0.38036426     0.29780
H2507       H  0.96646464  0.88228543  0.28176209     0.29840
H2508       H  0.84693822  0.73805644  0.28581777     0.30110
Zr2509     Zr  0.72562864  0.59443768  0.34586248     2.17510
O2510       O  0.76301468  0.59021045  0.30270132    -0.52250
O2511       O  0.77001246  0.65466188  0.35771554    -0.75450
O2512       O  0.71739830  0.61076316  0.28793201    -0.82240
O2513       O  0.75564349  0.54937243  0.40751586    -0.83980
O2514       O  0.66528550  0.60853630  0.28683315    -0.79610
O2515       O  0.77100790  0.58122761  0.35842348    -0.91240
O2516       O  0.75471655  0.67250133  0.40582591    -0.77200
O2517       O  0.69593464  0.62445375  0.36123220    -0.86700
O2518       O  0.72856856  0.59889324  0.40691174    -0.86390
O2519       O  0.66732229  0.55733715  0.32575003    -0.73140
O2520       O  0.69832235  0.53593373  0.36790918    -0.85280
Zr2521     Zr  0.61242674  0.53468741  0.42449982     2.26420
Zr2522     Zr  0.63765296  0.58761573  0.34201601     2.06270
Zr2523     Zr  0.70072166  0.54116190  0.42910505     2.10050
Zr2524     Zr  0.69781843  0.62766922  0.42233173     1.78760
O2525       O  0.71026900  0.99288834  0.44079632    -0.94080
O2526       O  0.69037013  0.67702053  0.40908084    -0.41890
O2527       O  0.67025775  0.57024522  0.44597198    -0.78520
O2528       O  0.63960950  0.59299261  0.40308478    -0.97210
O2529       O  0.60960667  0.52979976  0.36377690    -0.90510
O2530       O  0.64269846  0.50517113  0.40927510    -0.93360
C2531       C  0.77574426  0.67696611  0.38148594     1.00400
C2532       C  0.77635111  0.56468189  0.38227933     1.13330
C2533       C  0.69288301  0.61250082  0.27229713     1.04110
O2534       O  0.64066220  0.64335399  0.33488396    -0.95510
O2535       O  0.58262607  0.57992734  0.36152260    -0.91250
O2536       O  0.56614875  0.54674957  0.40986712    -0.84400
C2537       C  0.56150326  0.56423719  0.38627725     1.10750
O2538       O  0.66646583  0.98451250  0.30313765    -0.97480
Zr2539     Zr  0.63960123  0.50019833  0.34893757     1.88940
O2540       O  0.56373856  0.97814238  0.41103857    -0.74130
O2541       O  0.59384590  0.55954791  0.29757205    -0.53390
O2542       O  0.60635343  0.98605051  0.29586419    -0.98070
O2543       O  0.64335608  0.94899960  0.36385634    -0.55290
O2544       O  0.58003014  0.95884848  0.36461025    -0.74650
C2545       C  0.55792183  0.95579753  0.38748915     0.97690
O2546       O  0.59069871  0.54844341  0.47547497    -0.63470
O2547       O  0.73674819  0.57385732  0.47760335    -0.58270
O2548       O  0.61258329  0.50199350  0.47475263    -0.94960
O2549       O  0.66528263  0.50537151  0.47699150    -0.93380
O2550       O  0.73279803  0.64295203  0.47425982    -0.93740
O2551       O  0.67309045  0.64405915  0.46929969    -0.92520
C2552       C  0.63448461  0.49477634  0.48852441     1.16540
H2553       H  0.75230373  0.61161652  0.41473779     0.32480
H2554       H  0.62706025  0.60429898  0.41050347     0.43330
H2555       H  0.63211371  0.98230762  0.41929447     0.36860
H2556       H  0.66653825  0.55368512  0.30132386     0.33340
H2557       H  0.70839983  0.69641062  0.42272821     0.25130
H2558       H  0.59435407  0.57882853  0.28446550     0.31060
H2559       H  0.59152285  0.96049401  0.29603695     0.36970
H2560       H  0.74471563  0.66857664  0.47538059     0.31430
H2561       H  0.73241733  0.55615855  0.49523982     0.30310
H2562       H  0.72554424  0.00018646  0.46120464     0.31990
H2563       H  0.62239097  0.93425145  0.37765102     0.30960
H2564       H  0.64826719  0.62606602  0.46961197     0.34960
H2565       H  0.61048479  0.55719667  0.49158894     0.27690
H2566       H  0.77463725  0.61268812  0.29045140     0.31920
H2567       H  0.64943135  0.96027538  0.29694866     0.34770
H2568       H  0.76082821  0.58214569  0.46995234     0.27390
H2569       H  0.58984993  0.56945139  0.46890389     0.40260
H2570       H  0.66462370  0.65931741  0.32702559     0.30310
H2571       H  0.69825928  0.68311911  0.38505663     0.37930
H2572       H  0.66275257  0.95745847  0.38041926     0.29780
H2573       H  0.60352815  0.54919795  0.28171410     0.29840
H2574       H  0.74710220  0.57310904  0.28575657     0.30110
Zr2575     Zr  0.61501152  0.87290111  0.66215961     2.17510
O2576       O  0.65656091  0.87686014  0.70527135    -0.52250
O2577       O  0.59915485  0.81268892  0.65023870    -0.75450
O2578       O  0.59049168  0.85660869  0.72012085    -0.82240
O2579       O  0.69007807  0.91802825  0.60043032    -0.83980
O2580       O  0.54051407  0.85865967  0.72121239    -0.79610
O2581       O  0.67365200  0.88627925  0.64959054    -0.91240
O2582       O  0.56627015  0.79498049  0.60195455    -0.77200
O2583       O  0.55529430  0.84288525  0.64680366    -0.86700
O2584       O  0.61347006  0.86848574  0.60110092    -0.86390
O2585       O  0.59381113  0.90997434  0.68233866    -0.73140
O2586       O  0.64619395  0.93141932  0.64014752    -0.85280
Zr2587     Zr  0.56147621  0.93264931  0.58363413     2.26420
Zr2588     Zr  0.53385023  0.87969131  0.66608731     2.06270
Zr2589     Zr  0.64333435  0.92624199  0.57894789     2.10050
Zr2590     Zr  0.55392098  0.83968487  0.58570143     1.78760
O2591       O  0.70112338  0.97468410  0.56746321    -0.94080
O2592       O  0.49734113  0.79012560  0.59926539    -0.41890
O2593       O  0.58376174  0.89713311  0.56210782    -0.78520
O2594       O  0.53038718  0.87433241  0.60501763    -0.97210
O2595       O  0.56359375  0.93752009  0.64435935    -0.90510
O2596       O  0.62128362  0.96218501  0.59883725    -0.93360
C2597       C  0.58271879  0.79045528  0.62637192     1.00400
C2598       C  0.69551273  0.90278172  0.62569884     1.13330
C2599       C  0.56419242  0.85477514  0.73575155     1.04110
O2600       O  0.98109160  0.82397306  0.67325480    -0.95510
O2601       O  0.98644234  0.88730190  0.64668231    -0.91250
O2602       O  0.50311605  0.92050117  0.59835215    -0.84400
C2603       C  0.98098887  0.90298849  0.62194360     1.10750
O2604       O  0.66576506  0.98276520  0.70497560    -0.97480
Zr2605     Zr  0.62320924  0.96712629  0.65917951     1.88940
O2606       O  0.56940472  0.98921044  0.59711941    -0.74130
O2607       O  0.51828082  0.90784008  0.71058306    -0.53390
O2608       O  0.60405194  0.98119453  0.71225786    -0.98070
O2609       O  0.67821512  0.51833030  0.64437650    -0.55290
O2610       O  0.60506318  0.50852777  0.64350155    -0.74650
C2611       C  0.58598983  0.51157606  0.62063754     0.97690
O2612       O  0.52590032  0.91891180  0.53270843    -0.63470
O2613       O  0.64680301  0.89374067  0.53035006    -0.58270
O2614       O  0.59429524  0.96536030  0.53337003    -0.94960
O2615       O  0.64362931  0.96201071  0.53107388    -0.93380
O2616       O  0.57341759  0.82473322  0.53343846    -0.93740
O2617       O  0.51238280  0.82300823  0.53905508    -0.92520
C2618       C  0.62340820  0.97259305  0.51957101     1.16540
H2619       H  0.62449994  0.85579368  0.59324567     0.32480
H2620       H  0.50652031  0.86301768  0.59762301     0.43330
H2621       H  0.63355564  0.98505593  0.58883442     0.36860
H2622       H  0.59668432  0.91361404  0.70676616     0.33340
H2623       H  0.99595169  0.77080797  0.58547153     0.25130
H2624       H  0.49943603  0.88858314  0.72365055     0.31060
H2625       H  0.61476678  0.50674987  0.71210776     0.36970
H2626       H  0.55995639  0.79909685  0.53235721     0.31430
H2627       H  0.66048223  0.91153758  0.51289999     0.30310
H2628       H  0.70917912  0.96752102  0.54701962     0.31990
H2629       H  0.67201715  0.53330425  0.63095056     0.30960
H2630       H  0.00553463  0.84098427  0.53874118     0.34960
H2631       H  0.53696074  0.91027010  0.51650563     0.27690
H2632       H  0.64564688  0.85432519  0.71741913     0.31920
H2633       H  0.67288060  0.50695365  0.71127963     0.34770
H2634       H  0.66233371  0.88517089  0.53809841     0.27390
H2635       H  0.00408461  0.89783676  0.53925110     0.40260
H2636       H  0.98909435  0.80794244  0.68086287     0.30310
H2637       H  0.49937547  0.78399723  0.62321283     0.37930
H2638       H  0.68897818  0.50998168  0.62749488     0.29780
H2639       H  0.53830151  0.91807443  0.72646310     0.29840
H2640       H  0.65778695  0.89390167  0.72231031     0.30110
Zr2641     Zr  0.61320631  0.70712808  0.66219342     2.17510
O2642       O  0.60880988  0.74442733  0.70534251    -0.52250
O2643       O  0.67342213  0.75155741  0.65041869    -0.75450
O2644       O  0.62953478  0.69893695  0.72014232    -0.82240
O2645       O  0.56817167  0.73711271  0.60047580    -0.83980
O2646       O  0.62735405  0.64684566  0.72126489    -0.79610
O2647       O  0.60001994  0.75249992  0.64957991    -0.91240
O2648       O  0.69125358  0.73630575  0.60227536    -0.77200
O2649       O  0.64328697  0.67749839  0.64683643    -0.86700
O2650       O  0.61764930  0.71005881  0.60113795    -0.86390
O2651       O  0.57616009  0.64882233  0.68231119    -0.73140
O2652       O  0.55470980  0.67977984  0.64011463    -0.85280
Zr2653     Zr  0.55355346  0.59391122  0.58356635     2.26420
Zr2654     Zr  0.60650162  0.61921332  0.66606145     2.06270
Zr2655     Zr  0.55991931  0.68215172  0.57891216     2.10050
Zr2656     Zr  0.64649286  0.67937436  0.58573683     1.78760
O2657       O  0.51164427  0.69170094  0.56724834    -0.94080
O2658       O  0.69591445  0.67204842  0.59901198    -0.41890
O2659       O  0.58906689  0.65174268  0.56207973    -0.78520
O2660       O  0.61186237  0.62115794  0.60499279    -0.97210
O2661       O  0.54868585  0.59112229  0.64429206    -0.90510
O2662       O  0.52398984  0.62413805  0.59877634    -0.93360
C2663       C  0.69571993  0.75731463  0.62663890     1.00400
C2664       C  0.58348331  0.75783350  0.62570988     1.13330
C2665       C  0.63128341  0.67443468  0.73579334     1.04110
O2666       O  0.66230774  0.62235853  0.67314000    -0.95510
O2667       O  0.59883127  0.56418150  0.64658589    -0.91250
O2668       O  0.56565186  0.54766782  0.59823639    -0.84400
C2669       C  0.58314216  0.54304180  0.62183979     1.10750
O2670       O  0.50335166  0.64794528  0.70490593    -0.97480
Zr2671     Zr  0.51902948  0.62106765  0.65911246     1.88940
O2672       O  0.49703509  0.54517802  0.59704227    -0.74130
O2673       O  0.57854067  0.57540239  0.71051640    -0.53390
O2674       O  0.50486207  0.58783385  0.71219479    -0.98070
O2675       O  0.96781473  0.62477344  0.64415637    -0.55290
O2676       O  0.97772813  0.56148619  0.64344997    -0.74650
C2677       C  0.97468836  0.53936705  0.62058792     0.97690
O2678       O  0.56751262  0.57234007  0.53261023    -0.63470
O2679       O  0.59254185  0.71808686  0.53034303    -0.58270
O2680       O  0.52074389  0.59391586  0.53333099    -0.94960
O2681       O  0.52404097  0.64658045  0.53108613    -0.93380
O2682       O  0.66170623  0.71432286  0.53379434    -0.93740
O2683       O  0.66302193  0.65475489  0.53877723    -0.92520
C2684       C  0.51345355  0.61577062  0.51956794     1.16540
H2685       H  0.63035410  0.73379388  0.59331079     0.32480
H2686       H  0.62318633  0.60862182  0.59758724     0.43330
H2687       H  0.50112146  0.61352281  0.58876773     0.36860
H2688       H  0.57249756  0.64803637  0.70673504     0.33340
H2689       H  0.71528964  0.69010223  0.58537160     0.25130
H2690       H  0.59785115  0.57601332  0.72366060     0.31060
H2691       H  0.97930379  0.57302100  0.71202136     0.36970
H2692       H  0.68733645  0.72634136  0.53271182     0.31430
H2693       H  0.57481055  0.71376583  0.51274590     0.30310
H2694       H  0.51891201  0.70693134  0.54680907     0.31990
H2695       H  0.95317926  0.60390795  0.63018682     0.30960
H2696       H  0.64544178  0.62979166  0.53883564     0.34960
H2697       H  0.57620842  0.59212832  0.51650526     0.27690
H2698       H  0.63126607  0.75608357  0.71763105     0.31920
H2699       H  0.97909596  0.63093662  0.71105593     0.34770
H2700       H  0.60088884  0.74218385  0.53797685     0.27390
H2701       H  0.58857197  0.57160280  0.53921557     0.40260
H2702       H  0.67821399  0.64629974  0.68109290     0.30310
H2703       H  0.70199571  0.67994363  0.62303770     0.37930
H2704       H  0.97631117  0.64430057  0.62774868     0.29780
H2705       H  0.56809563  0.58501593  0.72633924     0.29840
H2706       H  0.59170050  0.72847707  0.72225757     0.30110
Zr2707     Zr  0.89143449  0.59618691  0.34596078     2.17510
O2708       O  0.89572313  0.63788007  0.30285867    -0.52250
O2709       O  0.83121831  0.58036000  0.35777299    -0.75450
O2710       O  0.87510218  0.57173372  0.28798999    -0.82240
O2711       O  0.93643326  0.67116877  0.40777182    -0.83980
O2712       O  0.87733797  0.52185432  0.28681209    -0.79610
O2713       O  0.90469307  0.65476760  0.35860200    -0.91240
O2714       O  0.81347138  0.54742300  0.40601811    -0.77200
O2715       O  0.86139620  0.53644769  0.36124094    -0.86700
O2716       O  0.88695208  0.59458958  0.40701500    -0.86390
O2717       O  0.92850858  0.57498828  0.32578801    -0.73140
O2718       O  0.94992344  0.62734487  0.36804771    -0.85280
Zr2719     Zr  0.95114225  0.54263810  0.42451157     2.26420
Zr2720     Zr  0.89821626  0.51501204  0.34198472     2.06270
Zr2721     Zr  0.94468329  0.62444108  0.42924192     2.10050
Zr2722     Zr  0.85813445  0.53502168  0.42233661     1.78760
O2723       O  0.99297614  0.68227936  0.44087243    -0.94080
O2724       O  0.80861723  0.97845637  0.40863553    -0.41890
O2725       O  0.91556051  0.56485464  0.44601883    -0.78520
O2726       O  0.89284111  0.51154176  0.40305478    -0.97210
O2727       O  0.95602436  0.54476047  0.36378248    -0.90510
O2728       O  0.98066888  0.60244662  0.40933235    -0.93360
C2729       C  0.80896683  0.56390242  0.38161464     1.00400
C2730       C  0.92118569  0.67661236  0.38250840     1.13330
C2731       C  0.87336454  0.54550134  0.27231286     1.04110
O2732       O  0.84243996  0.96231342  0.33485612    -0.95510
O2733       O  0.90588144  0.96763102  0.36144251    -0.91250
O2734       O  0.93903072  0.98428704  0.40981422    -0.84400
C2735       C  0.92154474  0.96216799  0.38620435     1.10750
O2736       O  0.00123629  0.64695746  0.30322997    -0.97480
Zr2737     Zr  0.98563571  0.60437676  0.34899048     1.88940
O2738       O  0.00768334  0.55051106  0.41102962    -0.74130
O2739       O  0.92620124  0.49924758  0.29748684    -0.53390
O2740       O  0.99963884  0.58515812  0.29591344    -0.98070
O2741       O  0.53690309  0.65937180  0.36369613    -0.55290
O2742       O  0.52700003  0.58618273  0.36465993    -0.74650
C2743       C  0.53004382  0.56709427  0.38750765     0.97690
O2744       O  0.93725891  0.00706822  0.47543728    -0.63470
O2745       O  0.91207421  0.62769147  0.47785267    -0.58270
O2746       O  0.98393199  0.57549503  0.47476683    -0.94960
O2747       O  0.98056654  0.62482008  0.47706242    -0.93380
O2748       O  0.84306804  0.55439715  0.47461028    -0.93740
O2749       O  0.84131052  0.49338369  0.46890569    -0.92520
C2750       C  0.99118904  0.60462663  0.48855516     1.16540
H2751       H  0.87424687  0.60560697  0.41486627     0.32480
H2752       H  0.88153235  0.98767251  0.41044171     0.43330
H2753       H  0.00354272  0.61472563  0.41933053     0.36860
H2754       H  0.93216640  0.57789208  0.30136503     0.33340
H2755       H  0.78926471  0.97703956  0.42238739     0.25130
H2756       H  0.90689838  0.98049468  0.28438717     0.31060
H2757       H  0.52519167  0.59585820  0.29604618     0.36970
H2758       H  0.81742724  0.54097026  0.47560653     0.31430
H2759       H  0.92983250  0.64129564  0.49536311     0.30310
H2760       H  0.98574138  0.69024155  0.46133423     0.31990
H2761       H  0.55210105  0.65314988  0.37668671     0.30960
H2762       H  0.85917210  0.98637727  0.46913450     0.34960
H2763       H  0.92861156  0.51816503  0.49158901     0.27690
H2764       H  0.87321923  0.62708409  0.29065708     0.31920
H2765       H  0.52536145  0.65395356  0.29678852     0.34770
H2766       H  0.90352090  0.64325494  0.47016884     0.27390
H2767       H  0.91616887  0.98528253  0.46885414     0.40260
H2768       H  0.82651942  0.97033345  0.32692440     0.30310
H2769       H  0.80254177  0.98052531  0.38467698     0.37930
H2770       H  0.52871593  0.66995758  0.38094659     0.29780
H2771       H  0.93656933  0.51929416  0.28164360     0.29840
H2772       H  0.91275957  0.63902291  0.28586180     0.30110
Zr2773     Zr  0.89172424  0.92473157  0.92612882     2.17510
O2774       O  0.91700507  0.96031774  0.97670509    -0.52250
O2775       O  0.93995374  0.91567159  0.91364592    -0.75450
O2776       O  0.88985965  0.89026799  0.97550560    -0.82240
O2777       O  0.92098485  0.00099103  0.86546201    -0.83980
O2778       O  0.83753435  0.84057913  0.97679612    -0.79610
O2779       O  0.93703202  0.98405640  0.91389795    -0.91240
O2780       O  0.92311115  0.87837913  0.86859445    -0.77200
O2781       O  0.86134330  0.86506133  0.91073695    -0.86700
O2782       O  0.89537671  0.92335627  0.86532319    -0.86390
O2783       O  0.83362890  0.90267014  0.94699033    -0.73140
O2784       O  0.86523142  0.95632123  0.90431696    -0.85280
Zr2785     Zr  0.77938535  0.87142665  0.84622858     2.26420
Zr2786     Zr  0.80297110  0.84312040  0.92958328     2.06270
Zr2787     Zr  0.86763441  0.95339357  0.84346178     2.10050
Zr2788     Zr  0.86524933  0.86372032  0.85028684     1.78760
O2789       O  0.86113111  0.00407107  0.83572995    -0.94080
O2790       O  0.85864649  0.80755900  0.86494463    -0.41890
O2791       O  0.83791835  0.89379654  0.82727638    -0.78520
O2792       O  0.80624875  0.83998999  0.86846199    -0.97210
O2793       O  0.77598076  0.87348307  0.90710795    -0.90510
O2794       O  0.80928405  0.93115609  0.86178055    -0.93360
C2795       C  0.94526285  0.89775516  0.89126534     1.00400
C2796       C  0.94171352  0.50638927  0.89054276     1.13330
C2797       C  0.86811012  0.86080612  0.98864217     1.04110
O2798       O  0.79204141  0.78466644  0.94019805    -0.95510
O2799       O  0.74698830  0.79742004  0.90888835    -0.91250
O2800       O  0.73096715  0.81497372  0.86093734    -0.84400
C2801       C  0.72577397  0.79268390  0.88431825     1.10750
O2802       O  0.83663406  0.97750327  0.96624726    -0.97480
Zr2803     Zr  0.80673222  0.93299269  0.92281879     1.88940
O2804       O  0.73320179  0.88439946  0.85870072    -0.74130
O2805       O  0.76710006  0.83994883  0.97813682    -0.53390
O2806       O  0.77459587  0.91487396  0.97654128    -0.98070
O2807       O  0.80845707  0.98744388  0.90942382    -0.55290
O2808       O  0.74802300  0.91633447  0.90775821    -0.74650
C2809       C  0.72692540  0.89967777  0.88341196     0.97690
O2810       O  0.75535007  0.83303730  0.79648314    -0.63470
O2811       O  0.91105790  0.97185280  0.79814869    -0.58270
O2812       O  0.78586143  0.89792294  0.78968867    -0.94960
O2813       O  0.84106960  0.94344300  0.78752326    -0.93380
O2814       O  0.90033799  0.88300051  0.79840809    -0.93740
O2815       O  0.84177321  0.82346298  0.80230192    -0.92520
C2816       C  0.81204650  0.92199784  0.77354516     1.16540
H2817       H  0.91915003  0.93467503  0.85762384     0.32480
H2818       H  0.79351762  0.81613342  0.86102396     0.43330
H2819       H  0.79888018  0.94306783  0.85062499     0.36860
H2820       H  0.83384005  0.90435241  0.97169538     0.33340
H2821       H  0.87699004  0.80637238  0.85170939     0.25130
H2822       H  0.75224054  0.81482667  0.98260207     0.31060
H2823       H  0.76113913  0.92706116  0.97720063     0.36970
H2824       H  0.91383782  0.87084652  0.79862477     0.31430
H2825       H  0.91802934  0.99635369  0.79362549     0.30310
H2826       H  0.87845333  0.51805952  0.81801261     0.31990
H2827       H  0.78801210  0.98584587  0.92119210     0.30960
H2828       H  0.81664104  0.81534624  0.80236228     0.34960
H2829       H  0.77570055  0.83868115  0.78189865     0.27690
H2830       H  0.93527505  0.95534979  0.98436028     0.31920
H2831       H  0.81998317  0.98487902  0.97338089     0.34770
H2832       H  0.93170104  0.97289543  0.80885390     0.27390
H2833       H  0.74799593  0.80922559  0.80433174     0.40260
H2834       H  0.80430376  0.78028613  0.92141439     0.30310
H2835       H  0.86636516  0.80988190  0.88909210     0.37930
H2836       H  0.80293535  0.98655392  0.88476103     0.29780
H2837       H  0.78313778  0.84868937  0.99793501     0.29840
H2838       H  0.89871874  0.94989762  0.99446545     0.30110
Zr2839     Zr  0.94311348  0.87310817  0.08197440     2.17510
O2840       O  0.97877412  0.89830484  0.03142721    -0.52250
O2841       O  0.93413855  0.92139560  0.09436671    -0.75450
O2842       O  0.90872393  0.87133067  0.03257913    -0.82240
O2843       O  0.51933836  0.90227599  0.14273090    -0.83980
O2844       O  0.85897577  0.81905118  0.03128018    -0.79610
O2845       O  0.50244670  0.91835279  0.09428383    -0.91240
O2846       O  0.89682472  0.90457824  0.13939498    -0.77200
O2847       O  0.88342871  0.84278435  0.09732453    -0.86700
O2848       O  0.94169920  0.87676360  0.14277805    -0.86390
O2849       O  0.92096119  0.81500727  0.06109382    -0.73140
O2850       O  0.97463794  0.84657195  0.10382534    -0.85280
Zr2851     Zr  0.88968705  0.76075673  0.16183663     2.26420
Zr2852     Zr  0.86140429  0.78439680  0.07848193     2.06270
Zr2853     Zr  0.97166299  0.84896294  0.16468240     2.10050
Zr2854     Zr  0.88205659  0.84668938  0.15776632     1.78760
O2855       O  0.52235526  0.84250851  0.17253083    -0.94080
O2856       O  0.82594364  0.84016585  0.14302554    -0.41890
O2857       O  0.91205793  0.81928672  0.18082387    -0.78520
O2858       O  0.85829374  0.78767403  0.13960202    -0.97210
O2859       O  0.89173982  0.75737429  0.10095395    -0.90510
O2860       O  0.94941237  0.79062677  0.14630377    -0.93360
C2861       C  0.91622398  0.92672346  0.11672762     1.00400
C2862       C  0.52476669  0.92300910  0.11765128     1.13330
C2863       C  0.87925023  0.84962070  0.01943820     1.04110
O2864       O  0.80297496  0.77359424  0.06798795    -0.95510
O2865       O  0.81571451  0.72837771  0.09916717    -0.91250
O2866       O  0.83327427  0.71232988  0.14709985    -0.84400
C2867       C  0.81098732  0.70714475  0.12372024     1.10750
O2868       O  0.99562702  0.81796145  0.04171444    -0.97480
Zr2869     Zr  0.95125255  0.78808865  0.08526163     1.88940
O2870       O  0.90267812  0.71456919  0.14935202    -0.74130
O2871       O  0.85807843  0.74852174  0.02986830    -0.53390
O2872       O  0.93305167  0.75585192  0.03159568    -0.98070
O2873       O  0.50574952  0.78989370  0.09860228    -0.55290
O2874       O  0.93467364  0.72941685  0.10033728    -0.74650
C2875       C  0.91800432  0.70831280  0.12466824     0.97690
O2876       O  0.85114218  0.73671220  0.21146965    -0.63470
O2877       O  0.98996617  0.89236978  0.21000195    -0.58270
O2878       O  0.91615617  0.76713104  0.21837930    -0.94960
O2879       O  0.96172592  0.82230800  0.22057803    -0.93380
O2880       O  0.90129755  0.88178122  0.20964887    -0.93740
O2881       O  0.84173261  0.82327104  0.20570046    -0.92520
C2882       C  0.94026925  0.79327800  0.23453539     1.16540
H2883       H  0.95303281  0.90053878  0.15047592     0.32480
H2884       H  0.83443594  0.77495270  0.14703489     0.43330
H2885       H  0.96131570  0.78020823  0.15744887     0.36860
H2886       H  0.92264716  0.81522007  0.03638920     0.33340
H2887       H  0.82474784  0.85849095  0.15628750     0.25130
H2888       H  0.83295019  0.73382601  0.02532714     0.31060
H2889       H  0.94530829  0.74246339  0.03090170     0.36970
H2890       H  0.88920706  0.89534177  0.20936952     0.31430
H2891       H  0.01441380  0.89924567  0.21469810     0.30310
H2892       H  0.53620658  0.85969056  0.19040555     0.31990
H2893       H  0.50413785  0.76941602  0.08689049     0.30960
H2894       H  0.83358065  0.79813095  0.20565040     0.34960
H2895       H  0.85695955  0.75700388  0.22621625     0.27690
H2896       H  0.97386885  0.91660948  0.02374488     0.31920
H2897       H  0.00307753  0.80135261  0.03463954     0.34770
H2898       H  0.99116964  0.91306229  0.19923871     0.27390
H2899       H  0.82741591  0.72967926  0.20357987     0.40260
H2900       H  0.79865405  0.78586278  0.08680901     0.30310
H2901       H  0.82832054  0.84793874  0.11889355     0.37930
H2902       H  0.50491448  0.78445531  0.12328181     0.29780
H2903       H  0.86697535  0.76460209  0.01011269     0.29840
H2904       H  0.96833604  0.88001560  0.01366922     0.30110
Zr2905     Zr  0.61257477  0.53513862  0.08197895     2.17510
O2906       O  0.58751763  0.54572004  0.03140477    -0.52250
O2907       O  0.56425367  0.97788806  0.09433779    -0.75450
O2908       O  0.61426035  0.50245515  0.03260426    -0.82240
O2909       O  0.58341698  0.58215775  0.14276694    -0.83980
O2910       O  0.66653743  0.50499695  0.03130674    -0.79610
O2911       O  0.56732931  0.54920671  0.09430313    -0.91240
O2912       O  0.58109098  0.95733696  0.13930294    -0.77200
O2913       O  0.64285287  0.50573731  0.09731981    -0.86700
O2914       O  0.60891531  0.53005341  0.14277923    -0.86390
O2915       O  0.67068121  0.57107161  0.06111804    -0.73140
O2916       O  0.63915837  0.59320349  0.10384337    -0.85280
Zr2917     Zr  0.72493389  0.59395790  0.16184255     2.26420
Zr2918     Zr  0.70124520  0.54207408  0.07848213     2.06270
Zr2919     Zr  0.63675960  0.58781818  0.16470330     2.10050
Zr2920     Zr  0.63894206  0.50044409  0.15775840     1.78760
O2921       O  0.64317956  0.64494303  0.17263394    -0.94080
O2922       O  0.64543251  0.95081319  0.14310533    -0.41890
O2923       O  0.66639295  0.55784658  0.18083063    -0.78520
O2924       O  0.69796353  0.53564782  0.13959459    -0.97210
O2925       O  0.72832496  0.59943408  0.10097042    -0.90510
O2926       O  0.69512087  0.62387733  0.14634853    -0.93360
C2927       C  0.55893779  0.95461904  0.11666316     1.00400
C2928       C  0.56267470  0.56685741  0.11768342     1.13330
C2929       C  0.63596524  0.49468908  0.01947103     1.04110
O2930       O  0.71195664  0.99436760  0.06804016    -0.95510
O2931       O  0.75729909  0.55243728  0.09909661    -0.91250
O2932       O  0.77334492  0.58597237  0.14708393    -0.84400
C2933       C  0.77853717  0.56891880  0.12365912     1.10750
O2934       O  0.66821241  0.64305787  0.04155445    -0.97480
Zr2935     Zr  0.69765763  0.62827990  0.08531494     1.88940
O2936       O  0.77118840  0.65312856  0.14944536    -0.74130
O2937       O  0.73707641  0.57453708  0.02981105    -0.53390
O2938       O  0.73010271  0.64237912  0.03177687    -0.98070
O2939       O  0.69548819  0.68078570  0.09862774    -0.55290
O2940       O  0.75628943  0.67037492  0.10053212    -0.74650
C2941       C  0.77742010  0.67476146  0.12481846     0.97690
O2942       O  0.74889497  0.57928878  0.21141634    -0.63470
O2943       O  0.59338494  0.56270396  0.21004637    -0.58270
O2944       O  0.71865838  0.61411361  0.21836114    -0.94960
O2945       O  0.66348108  0.60448789  0.22058590    -0.93380
O2946       O  0.60371889  0.98456379  0.20954703    -0.93740
O2947       O  0.66227792  0.98353056  0.20575709    -0.92520
C2948       C  0.69251820  0.61206060  0.23452848     1.16540
H2949       H  0.58513884  0.51761573  0.15047115     0.32480
H2950       H  0.71066450  0.52448991  0.14701988     0.43330
H2951       H  0.70557560  0.64620263  0.15749870     0.36860
H2952       H  0.67047176  0.57255973  0.03641450     0.33340
H2953       H  0.62707229  0.93129912  0.15634861     0.25130
H2954       H  0.75163744  0.56397672  0.02518015     0.31060
H2955       H  0.74358918  0.66802752  0.03116264     0.36970
H2956       H  0.59017515  0.95890784  0.20926959     0.31430
H2957       H  0.58647713  0.58025314  0.21472229     0.30310
H2958       H  0.62616128  0.64162685  0.19068244     0.31990
H2959       H  0.71666143  0.69991919  0.08810808     0.30960
H2960       H  0.68732255  0.00085745  0.20606973     0.34960
H2961       H  0.72860546  0.56492864  0.22620662     0.27690
H2962       H  0.56917107  0.52252874  0.02371197     0.31920
H2963       H  0.68487936  0.66718865  0.03472097     0.34770
H2964       H  0.57270155  0.54317939  0.19930248     0.27390
H2965       H  0.75574002  0.56246554  0.20349115     0.40260
H2966       H  0.69946391  0.97768124  0.08672886     0.30310
H2967       H  0.63769771  0.94541853  0.11896190     0.37930
H2968       H  0.69945852  0.68461847  0.12358209     0.29780
H2969       H  0.72094655  0.56744956  0.01010091     0.29840
H2970       H  0.60582087  0.55352447  0.01366871     0.30110
Zr2971     Zr  0.56101018  0.93197216  0.92608326     2.17510
O2972       O  0.52524973  0.92135207  0.97657816    -0.52250
O2973       O  0.57002161  0.98927332  0.91371511    -0.75450
O2974       O  0.59533454  0.96458013  0.97553037    -0.82240
O2975       O  0.98488135  0.88501038  0.86518908    -0.83980
O2976       O  0.64508184  0.96206373  0.97685812    -0.79610
O2977       O  0.50171087  0.91790439  0.91369156    -0.91240
O2978       O  0.60740053  0.50981846  0.86874628    -0.77200
O2979       O  0.62070800  0.96137888  0.91080386    -0.86700
O2980       O  0.56248379  0.93707116  0.86527882    -0.86390
O2981       O  0.58314565  0.89601445  0.94696938    -0.73140
O2982       O  0.52954448  0.87390623  0.90418629    -0.85280
Zr2983     Zr  0.61464226  0.87322349  0.84627609     2.26420
Zr2984     Zr  0.64273082  0.92502953  0.92967405     2.06270
Zr2985     Zr  0.53257093  0.87930641  0.84333469     2.10050
Zr2986     Zr  0.62214751  0.96670503  0.85036306     1.78760
O2987       O  0.98197368  0.82205568  0.83560323    -0.94080
O2988       O  0.67824088  0.51632133  0.86513588    -0.41890
O2989       O  0.59220288  0.90931406  0.82727337    -0.78520
O2990       O  0.64595114  0.93151188  0.86856710    -0.97210
O2991       O  0.61248761  0.86768319  0.90714572    -0.90510
O2992       O  0.55488229  0.84327915  0.86170264    -0.93360
C2993       C  0.58798157  0.51254764  0.89139164     1.00400
C2994       C  0.97942416  0.90028738  0.89028143     1.13330
C2995       C  0.62480494  0.97235060  0.98868454     1.04110
O2996       O  0.70111209  0.97268737  0.94033849    -0.95510
O2997       O  0.68854999  0.91487616  0.90908644    -0.91250
O2998       O  0.67108033  0.88133510  0.86110441    -0.84400
C2999       C  0.69333452  0.89843247  0.88451526     1.10750
O3000       O  0.50832262  0.82401753  0.96606896    -0.97480
Zr3001     Zr  0.55294349  0.83881483  0.92273140     1.88940
O3002       O  0.60169513  0.81404622  0.85864824    -0.74130
O3003       O  0.64595443  0.89241554  0.97828012    -0.53390
O3004       O  0.57108103  0.82482849  0.97646013    -0.98070
O3005       O  0.49859281  0.78600441  0.90923066    -0.55290
O3006       O  0.56964788  0.79682530  0.90762725    -0.74650
C3007       C  0.58634948  0.79243197  0.88330298     0.97690
O3008       O  0.65325840  0.88787625  0.79668492    -0.63470
O3009       O  0.51409937  0.90413563  0.79790613    -0.58270
O3010       O  0.58830934  0.85312723  0.78971040    -0.94960
O3011       O  0.54275202  0.86273887  0.78745054    -0.93380
O3012       O  0.60289498  0.98258578  0.79851161    -0.93740
O3013       O  0.66245217  0.98362416  0.80241220    -0.92520
C3014       C  0.56423779  0.85518894  0.77352173     1.16540
H3015       H  0.55115056  0.94950624  0.85756930     0.32480
H3016       H  0.66982284  0.94268775  0.86117543     0.43330
H3017       H  0.54302193  0.82096962  0.85052367     0.36860
H3018       H  0.58141959  0.89451160  0.97167088     0.33340
H3019       H  0.67944243  0.53583895  0.85186282     0.25130
H3020       H  0.67107172  0.90287276  0.98289316     0.31060
H3021       H  0.55901622  0.79918369  0.97705855     0.36970
H3022       H  0.61501631  0.50824416  0.79879050     0.31430
H3023       H  0.48953900  0.88667434  0.79354062     0.30310
H3024       H  0.96829929  0.82520113  0.81739960     0.31990
H3025       H  0.50010363  0.76721766  0.92123438     0.30960
H3026       H  0.67089901  0.96687483  0.80268129     0.34960
H3027       H  0.64745543  0.90238398  0.78197598     0.27690
H3028       H  0.53013263  0.94454278  0.98430758     0.31920
H3029       H  0.50111965  0.80005444  0.97329899     0.34770
H3030       H  0.51325404  0.92388666  0.80849906     0.27390
H3031       H  0.67697294  0.90455776  0.80461940     0.40260
H3032       H  0.70537190  0.98942779  0.92168638     0.30310
H3033       H  0.67584071  0.52171657  0.88926176     0.37930
H3034       H  0.49968019  0.78125019  0.88463609     0.29780
H3035       H  0.63698513  0.89954503  0.99801562     0.29840
H3036       H  0.53566427  0.91347134  0.99432915     0.30110
Zr3037     Zr  0.55389929  0.59419223  0.92616415     2.17510
O3038       O  0.56459983  0.56925688  0.97675936    -0.52250
O3039       O  0.49662837  0.54585430  0.91384012    -0.75450
O3040       O  0.52119028  0.59588292  0.97552716    -0.82240
O3041       O  0.60078516  0.56493575  0.86534382    -0.83980
O3042       O  0.52370467  0.64814755  0.97679143    -0.79610
O3043       O  0.56786636  0.54887920  0.91382627    -0.91240
O3044       O  0.97606714  0.56269251  0.86888375    -0.77200
O3045       O  0.52448068  0.62444254  0.91079440    -0.86700
O3046       O  0.54880911  0.59049966  0.86536149    -0.86390
O3047       O  0.58985053  0.65231638  0.94698718    -0.73140
O3048       O  0.61196291  0.62078545  0.90427653    -0.85280
Zr3049     Zr  0.61265129  0.70649741  0.84621487     2.26420
Zr3050     Zr  0.56081630  0.68283928  0.92961780     2.06270
Zr3051     Zr  0.60656377  0.61833743  0.84341706     2.10050
Zr3052     Zr  0.51918143  0.62049735  0.85035319     1.78760
O3053       O  0.66371436  0.62477894  0.83564492    -0.94080
O3054       O  0.96957461  0.62705321  0.86489559    -0.41890
O3055       O  0.57656670  0.64793890  0.82725660    -0.78520
O3056       O  0.55435956  0.67952237  0.86850088    -0.97210
O3057       O  0.61816162  0.70993838  0.90708661    -0.90510
O3058       O  0.64260555  0.67672135  0.86171951    -0.93360
C3059       C  0.97334714  0.54054456  0.89152725     1.00400
C3060       C  0.58547708  0.54419441  0.89042591     1.13330
C3061       C  0.51339739  0.61757959  0.98864056     1.04110
O3062       O  0.51319107  0.69362552  0.94016236    -0.95510
O3063       O  0.57109937  0.73884102  0.90895829    -0.91250
O3064       O  0.60460240  0.75487472  0.86095207    -0.84400
C3065       C  0.58754816  0.76006207  0.88437936     1.10750
O3066       O  0.66199898  0.64988768  0.96637458    -0.97480
Zr3067     Zr  0.64704717  0.67931391  0.92274713     1.88940
O3068       O  0.67179223  0.75282306  0.85856500    -0.74130
O3069       O  0.59337786  0.71868518  0.97824748    -0.53390
O3070       O  0.66110554  0.71170222  0.97632185    -0.98070
O3071       O  0.69965463  0.67735264  0.90938743    -0.55290
O3072       O  0.68904246  0.73798122  0.90750970    -0.74650
C3073       C  0.69341500  0.75909494  0.88320960     0.97690
O3074       O  0.59795704  0.73041017  0.79662084    -0.63470
O3075       O  0.58156968  0.57499860  0.79802698    -0.58270
O3076       O  0.63283566  0.70020920  0.78971624    -0.94960
O3077       O  0.62324647  0.64504249  0.78752189    -0.93380
O3078       O  0.50328696  0.58515798  0.79863827    -0.93740
O3079       O  0.50230487  0.64378369  0.80229236    -0.92520
C3080       C  0.63081157  0.67407234  0.77356495     1.16540
H3081       H  0.53636868  0.56671760  0.85768213     0.32480
H3082       H  0.54318200  0.69220206  0.86106752     0.43330
H3083       H  0.66492108  0.68717724  0.85055345     0.36860
H3084       H  0.59135486  0.65212615  0.97169043     0.33340
H3085       H  0.95003436  0.60859994  0.85175587     0.25130
H3086       H  0.58298751  0.73341808  0.98276705     0.31060
H3087       H  0.68675057  0.72530563  0.97688445     0.36970
H3088       H  0.97762982  0.57165163  0.79889883     0.31430
H3089       H  0.59904832  0.56795640  0.79353192     0.30310
H3090       H  0.66045340  0.60780003  0.81757180     0.31990
H3091       H  0.71871572  0.69841109  0.92014946     0.30960
H3092       H  0.51980769  0.66877181  0.80179045     0.34960
H3093       H  0.58363859  0.71011676  0.78181764     0.27690
H3094       H  0.54142406  0.55092283  0.98449941     0.31920
H3095       H  0.68605006  0.66666817  0.97334808     0.34770
H3096       H  0.56190216  0.55437439  0.80868503     0.27390
H3097       H  0.58109545  0.73720938  0.80453223     0.40260
H3098       H  0.99651688  0.68123183  0.92143411     0.30310
H3099       H  0.96424207  0.61947810  0.88908601     0.37930
H3100       H  0.70362977  0.68162744  0.88448191     0.29780
H3101       H  0.58614772  0.70260393  0.99800477     0.29840
H3102       H  0.57243249  0.58759398  0.99446451     0.30110
Zr3103     Zr  0.95053647  0.54252769  0.08193314     2.17510
O3104       O  0.93999077  0.00685995  0.03138082    -0.52250
O3105       O  0.00779781  0.55147518  0.09434405    -0.75450
O3106       O  0.98323154  0.57691616  0.03254865    -0.82240
O3107       O  0.90352123  0.96635911  0.14279637    -0.83980
O3108       O  0.98071205  0.62666355  0.03123358    -0.79610
O3109       O  0.93642789  0.98319790  0.09430670    -0.91240
O3110       O  0.52833796  0.58884251  0.13933296    -0.77200
O3111       O  0.97993923  0.60222157  0.09725035    -0.86700
O3112       O  0.95562267  0.54397997  0.14273734    -0.86390
O3113       O  0.91459907  0.56469450  0.06105693    -0.73140
O3114       O  0.89246661  0.51104915  0.10380175    -0.85280
Zr3115     Zr  0.89173641  0.59608774  0.16178982     2.26060
Zr3116     Zr  0.94360900  0.62427139  0.07839681     2.06270
Zr3117     Zr  0.89785481  0.51405095  0.16465438     2.10050
Zr3118     Zr  0.98524926  0.60363816  0.15768925     1.78760
O3119       O  0.84069288  0.96344812  0.17247456    -0.94080
O3120       O  0.53486960  0.65971368  0.14287719    -0.41890
O3121       O  0.92785141  0.57366981  0.18076364    -0.78520
O3122       O  0.95003621  0.62743286  0.13951235    -0.97210
O3123       O  0.88625599  0.59399318  0.10090917    -0.90510
O3124       O  0.86181482  0.53634827  0.14629805    -0.93360
C3125       C  0.53106069  0.56941478  0.11668988     1.00400
C3126       C  0.91879150  0.96090086  0.11770538     1.13330
C3127       C  0.99102062  0.60639795  0.01940960     1.04110
O3128       O  0.99129674  0.68268198  0.06792852    -0.95510
O3129       O  0.93330203  0.66999588  0.09901423    -0.91250
O3130       O  0.89973958  0.65248400  0.14697991    -0.84400
C3131       C  0.91681984  0.67474679  0.12357443     1.10750
O3132       O  0.84269427  0.98985015  0.04193205    -0.97480
Zr3133     Zr  0.85738988  0.53446561  0.08526218     1.88940
O3134       O  0.83252617  0.58306940  0.14940826    -0.74130
O3135       O  0.91112889  0.62760162  0.02972168    -0.53390
O3136       O  0.84343618  0.55264301  0.03154002    -0.98070
O3137       O  0.80457938  0.98009149  0.09873684    -0.55290
O3138       O  0.81536759  0.55112714  0.10035677    -0.74650
C3139       C  0.81093387  0.56776226  0.12472143     0.97690
O3140       O  0.90636956  0.63473067  0.21136114    -0.63470
O3141       O  0.92273786  0.49559408  0.21004504    -0.58270
O3142       O  0.87174783  0.56971823  0.21838509    -0.94960
O3143       O  0.88127348  0.52410360  0.22056573    -0.93380
O3144       O  0.50114198  0.58442843  0.20956205    -0.93740
O3145       O  0.00219318  0.64396659  0.20562776    -0.92520
C3146       C  0.87377153  0.54560202  0.23453693     1.16540
H3147       H  0.96805045  0.53263942  0.15044657     0.32480
H3148       H  0.96119592  0.65130012  0.14691993     0.43330
H3149       H  0.83950024  0.52446722  0.15746253     0.36860
H3150       H  0.91310865  0.56298658  0.03635385     0.33340
H3151       H  0.55437018  0.66095806  0.15621877     0.25130
H3152       H  0.92167707  0.65272440  0.02508710     0.31060
H3153       H  0.81779065  0.54051686  0.03088887     0.36970
H3154       H  0.52679688  0.59653100  0.20927135     0.31430
H3155       H  0.90538581  0.97122641  0.21459724     0.30310
H3156       H  0.84392186  0.94970063  0.19053683     0.31990
H3157       H  0.78581465  0.98156741  0.08664446     0.30960
H3158       H  0.48551761  0.65250425  0.20529400     0.34960
H3159       H  0.92087521  0.62893625  0.22608277     0.27690
H3160       H  0.96318838  0.01174005  0.02368147     0.31920
H3161       H  0.81872071  0.98259830  0.03469835     0.34770
H3162       H  0.94242558  0.49466283  0.19941071     0.27390
H3163       H  0.92305472  0.65844139  0.20342171     0.40260
H3164       H  0.50801944  0.68686385  0.08657724     0.30310
H3165       H  0.54030998  0.65726250  0.11878188     0.37930
H3166       H  0.79975866  0.98121398  0.12330599     0.29780
H3167       H  0.91822319  0.61856547  0.01001452     0.29840
H3168       H  0.93212840  0.51731156  0.01363443     0.30110
loop_ 
_geom_bond_atom_site_label_1 
_geom_bond_atom_site_label_2 
_geom_bond_distance 
_geom_bond_site_symmetry_2 
_ccdc_geom_bond_type 
Zr1           O2   2.441       .  S
Zr1           O3   2.453       .  S
Zr1           O4   2.456       .  S
Zr1           O7   2.421       .  S
Zr1           O9   2.381       .  S
Zr1          O10   2.388       .  S
Zr1          O11   2.409       .  S
Zr1          O12   2.417       .  S
O2           H58   0.990       .  S
O2           H66   0.990       .  S
O3           C23   1.288       .  A
O4           C25   1.287       .  A
O5          Zr15   2.436       .  S
O5           C24   1.287       .  A
O6          Zr14   2.423       .  S
O6           C25   1.284       .  A
O7           C24   1.281       .  A
O8          Zr16   2.402       .  S
O8           C23   1.278       .  A
O9          Zr14   2.395       .  S
O9          Zr16   2.386       .  S
O10         Zr15   2.390       .  S
O10         Zr16   2.375       .  S
O10          H45   0.966       .  S
O11         Zr14   2.399       .  S
O11         Zr31   2.383       .  S
O11          H48   0.964       .  S
O12         Zr15   2.395       .  S
O12         Zr31   2.400       .  S
Zr13         O38   2.421       .  S
Zr13         O32   2.421       .  S
Zr13         O40   2.445       .  S
Zr13         O28   2.445       .  S
Zr13         O19   2.401       .  S
Zr13         O20   2.401       .  S
Zr13         O21   2.376       .  S
Zr13         O22   2.382       .  S
Zr14         O33   2.437       .  S
Zr14         O26   2.435       .  S
Zr14         O27   2.422       .  S
Zr14         O20   2.391       .  S
Zr14         O21   2.387       .  S
Zr15         O17   2.435       .  S
Zr15         O39   2.437       .  S
Zr15         O41   2.451       .  S
Zr15         O19   2.391       .  S
Zr15         O22   2.389       .  S
Zr16         O42   2.436       .  S
Zr16         O43   2.431       .  S
Zr16         O18   2.438       .  S
Zr16         O19   2.401       .  S
Zr16         O20   2.381       .  S
O17          H54   0.991       .  S
O18          H49   0.990       .  S
O18          H63   0.990       .  S
O20          H46   0.965       .  S
O21         Zr31   2.371       .  S
O22         Zr31   2.361       .  S
O22          H47   0.966       .  S
C23         C222   1.471       .  S
C24         C287   1.471       .  S
C25         C440   1.473       .  S
O26          H62   0.990       .  S
O27         C821   1.284       .  A
O28         C821   1.288       .  A
C29         O819   1.284   1_545  A
C29         O820   1.288   1_545  A
C29         C301   1.470       .  S
O30         Zr31   2.439       .  S
O30          H59   0.990       .  S
Zr31         O34   2.438       .  S
Zr31         O35   2.440       .  S
Zr31         O36   2.434       .  S
O32          C37   1.282       .  A
O33          H50   0.990       .  S
O33          H65   0.990       .  S
O34          H51   0.990       .  S
O35          H55   0.990       .  S
O35          H64   0.990       .  S
O36          C37   1.285       .  A
C37         C227   1.470       .  S
O38          H57   0.990       .  S
O38          H61   0.989       .  S
O39          H53   0.990       .  S
O39          H60   0.990       .  S
O40          C44   1.288       .  A
O41          C44   1.289       .  A
O42          H52   0.990       .  S
O43          H56   0.990       .  S
C44         C110   1.483       .  S
Zr67         O68   2.441       .  S
Zr67         O69   2.453       .  S
Zr67         O70   2.457       .  S
Zr67         O73   2.421       .  S
Zr67         O75   2.381       .  S
Zr67         O76   2.388       .  S
Zr67         O77   2.409       .  S
Zr67         O78   2.417       .  S
O68         H124   0.990       .  S
O68         H132   0.990       .  S
O69          C89   1.288       .  A
O70          C91   1.287       .  A
O71         Zr81   2.437       .  S
O71          C90   1.287       .  A
O72         Zr80   2.423       .  S
O72          C91   1.284       .  A
O73          C90   1.281       .  A
O74         Zr82   2.402       .  S
O74          C89   1.278       .  A
O75         Zr80   2.395       .  S
O75         Zr82   2.387       .  S
O76         Zr81   2.390       .  S
O76         Zr82   2.375       .  S
O76         H111   0.966       .  S
O77         Zr80   2.399       .  S
O77         Zr97   2.383       .  S
O77         H114   0.964       .  S
O78         Zr81   2.395       .  S
O78         Zr97   2.400       .  S
Zr79        O104   2.421       .  S
Zr79         O98   2.422       .  S
Zr79        O106   2.444       .  S
Zr79       O1678   2.444       .  S
Zr79         O85   2.402       .  S
Zr79         O86   2.401       .  S
Zr79         O87   2.376       .  S
Zr79         O88   2.383       .  S
Zr80         O99   2.436       .  S
Zr80       O1676   2.435       .  S
Zr80       O1677   2.422       .  S
Zr80         O86   2.391       .  S
Zr80         O87   2.387       .  S
Zr81         O83   2.435       .  S
Zr81        O105   2.437       .  S
Zr81        O107   2.452       .  S
Zr81         O85   2.391       .  S
Zr81         O88   2.389       .  S
Zr82        O108   2.436       .  S
Zr82        O109   2.432       .  S
Zr82       O1668   2.438       .  S
Zr82         O85   2.401       .  S
Zr82         O86   2.381       .  S
O83         H120   0.991       .  S
O84       Zr1666   2.438   1_455  S
O84         H115   0.990       .  S
O84        H1713   0.990       .  S
O86         H112   0.965       .  S
O87         Zr97   2.372       .  S
O88         Zr97   2.361       .  S
O88         H113   0.966       .  S
C89         C354   1.471       .  S
C90         C155   1.471       .  S
C91         C506   1.473       .  S
O92       Zr1664   2.435   1_455  S
O92         H128   0.990       .  S
O93       Zr1664   2.422   1_455  S
O93          C95   1.284       .  A
O94       Zr1663   2.444   1_455  S
O94          C95   1.288       .  A
C95         C169   1.470       .  S
O96         Zr97   2.439       .  S
O96         H125   0.990       .  S
Zr97        O100   2.438       .  S
Zr97        O101   2.440       .  S
Zr97        O102   2.434       .  S
O98         C103   1.282       .  A
O99         H116   0.990       .  S
O99         H131   0.990       .  S
O100        H117   0.990       .  S
O101        H121   0.990       .  S
O101        H130   0.990       .  S
O102        C103   1.285       .  A
C103        C359   1.471       .  S
O104        H123   0.990       .  S
O104       H1711   0.989       .  S
O105        H119   0.990       .  S
O105        H126   0.990       .  S
O106        C110   1.288       .  A
O107        C110   1.289       .  A
O108        H118   0.990       .  S
O109       H1706   0.990       .  S
H122       O1693   0.990       .  S
H127       O1688   0.989   1_455  S
H129       O1668   0.990       .  S
Zr133       O134   2.441       .  S
Zr133       O135   2.453       .  S
Zr133       O136   2.457       .  S
Zr133       O139   2.422       .  S
Zr133       O141   2.381       .  S
Zr133       O142   2.387       .  S
Zr133       O143   2.409       .  S
Zr133       O144   2.417       .  S
O134        H190   0.990       .  S
O134        H198   0.990       .  S
O135        C155   1.288       .  A
O136        C157   1.287       .  A
O137       Zr147   2.436       .  S
O137        C156   1.287       .  A
O138       Zr146   2.423       .  S
O138        C157   1.284       .  A
O139        C156   1.281       .  A
O140       Zr148   2.401       .  S
O140        C155   1.278       .  A
O141       Zr146   2.395       .  S
O141       Zr148   2.386       .  S
O142       Zr147   2.390       .  S
O142       Zr148   2.375       .  S
O142        H177   0.966       .  S
O143       Zr146   2.399       .  S
O143       Zr163   2.383       .  S
O143        H180   0.964       .  S
O144       Zr147   2.395       .  S
O144       Zr163   2.400       .  S
Zr145       O170   2.421       .  S
Zr145       O172   2.444       .  S
Zr145       O160   2.444       .  S
Zr145       O956   2.421   1_545  S
Zr145       O151   2.402       .  S
Zr145       O152   2.401       .  S
Zr145       O153   2.376       .  S
Zr145       O154   2.382       .  S
Zr146       O165   2.436       .  S
Zr146       O158   2.435       .  S
Zr146       O159   2.422       .  S
Zr146       O152   2.391       .  S
Zr146       O153   2.387       .  S
Zr147       O171   2.437       .  S
Zr147       O941   2.435   1_545  S
Zr147       O173   2.451       .  S
Zr147       O151   2.390       .  S
Zr147       O154   2.389       .  S
Zr148       O174   2.436       .  S
Zr148       O175   2.431       .  S
Zr148       O150   2.438       .  S
Zr148       O151   2.400       .  S
Zr148       O152   2.381       .  S
O149       Zr939   2.435       .  S
O149        H186   0.991       .  S
O150        H181   0.990       .  S
O150        H195   0.990       .  S
O152        H178   0.965       .  S
O153       Zr163   2.372       .  S
O154       Zr163   2.361       .  S
O154        H971   0.966   1_545  S
C156        C353   1.471       .  S
C157        C572   1.473       .  S
O158        H194   0.990       .  S
O159        C161   1.284       .  A
O160        C161   1.288       .  A
C161        C367   1.470       .  S
O162       Zr955   2.439       .  S
O162        H191   0.990       .  S
Zr163       O954   2.439   1_545  S
Zr163       O958   2.438   1_545  S
Zr163       O959   2.440   1_545  S
Zr163       O960   2.434   1_545  S
O164       Zr937   2.421       .  S
O164        C169   1.282       .  A
O165        H182   0.990       .  S
O165        H197   0.990       .  S
O166       Zr955   2.438       .  S
O166        H183   0.990       .  S
O167       Zr955   2.440       .  S
O167        H187   0.990       .  S
O167        H196   0.990       .  S
O168       Zr955   2.434       .  S
O168        C169   1.285       .  A
O170        H189   0.990       .  S
O170        H193   0.989       .  S
O171        H185   0.990       .  S
O171        H192   0.990       .  S
O172        C176   1.288   1_545  A
O173        C176   1.289   1_545  A
O174        H184   0.990       .  S
O175        H188   0.990       .  S
C176       C1034   1.483       .  S
H179        O946   0.966       .  S
Zr199       O200   2.441       .  S
Zr199       O201   2.453       .  S
Zr199       O202   2.457       .  S
Zr199       O205   2.422       .  S
Zr199       O207   2.381       .  S
Zr199       O208   2.388       .  S
Zr199       O209   2.409       .  S
Zr199       O210   2.417       .  S
O200        H256   0.990       .  S
O200        H264   0.990       .  S
O201        C221   1.288       .  A
O202        C223   1.287       .  A
O203       Zr213   2.436       .  S
O203        C222   1.287       .  A
O204       Zr212   2.422       .  S
O204        C223   1.283       .  A
O205        C222   1.281       .  A
O206       Zr214   2.402       .  S
O206        C221   1.278       .  A
O207       Zr212   2.395       .  S
O207       Zr214   2.386       .  S
O208       Zr213   2.391       .  S
O208       Zr214   2.375       .  S
O208        H243   0.966       .  S
O209       Zr212   2.399       .  S
O209       Zr229   2.383       .  S
O209        H246   0.964       .  S
O210       Zr213   2.395       .  S
O210       Zr229   2.400       .  S
Zr211       O236   2.421       .  S
Zr211       O230   2.421       .  S
Zr211       O238   2.444       .  S
Zr211       O226   2.445       .  S
Zr211       O217   2.401       .  S
Zr211       O218   2.401       .  S
Zr211       O219   2.376       .  S
Zr211       O220   2.383       .  S
Zr212       O231   2.436       .  S
Zr212      O1808   2.435   1_455  S
Zr212      O1809   2.422   1_455  S
Zr212       O218   2.391       .  S
Zr212       O219   2.387       .  S
Zr213       O215   2.435       .  S
Zr213       O237   2.437       .  S
Zr213       O239   2.451       .  S
Zr213       O217   2.391       .  S
Zr213       O220   2.389       .  S
Zr214       O240   2.436       .  S
Zr214       O241   2.431       .  S
Zr214       O216   2.438   1_455  S
Zr214       O217   2.401       .  S
Zr214       O218   2.381       .  S
O215        H252   0.990       .  S
O216        H261   0.990       .  S
O216       H1831   0.990       .  S
O218        H244   0.965       .  S
O219       Zr229   2.372       .  S
O220       Zr229   2.361       .  S
O220        H245   0.966       .  S
C221        C288   1.471       .  S
C223        C638   1.473       .  S
O224      Zr1796   2.435       .  S
O224        H260   0.990       .  S
O225      Zr1796   2.422       .  S
O225        C227   1.284       .  A
O226       C1811   1.288   1_455  A
C227       O1810   1.288       .  A
O228       Zr229   2.439       .  S
O228       H1049   0.990       .  S
Zr229       O232   2.438       .  S
Zr229      O1025   2.440       .  S
Zr229      O1026   2.434       .  S
O230       C1027   1.282       .  A
O231        H248   0.990   1_455  S
O231        H263   0.990       .  S
O232       H1041   0.990       .  S
O233      Zr1021   2.440   1_545  S
O233        H253   0.990       .  S
O233        H262   0.990       .  S
O234      Zr1021   2.434   1_545  S
O234        C235   1.285       .  A
C235       O1022   1.282   1_545  A
C235        C293   1.470       .  S
O236        H255   0.990       .  S
O236       H1843   0.989       .  S
O237        H251   0.990       .  S
O237        H258   0.990       .  S
O238        C242   1.288       .  A
O239        C242   1.289       .  A
O240        H250   0.990       .  S
O241       H1838   0.990       .  S
C242        C968   1.483       .  S
H247       O1800   0.990       .  S
H249       O1024   0.990   1_545  S
H254       O1825   0.990       .  S
H257       O1020   0.990   1_545  S
H259       O1820   0.989       .  S
Zr265       O266   2.441       .  S
Zr265       O267   2.453       .  S
Zr265       O268   2.457       .  S
Zr265       O271   2.421       .  S
Zr265       O273   2.381       .  S
Zr265       O274   2.388       .  S
Zr265       O275   2.408       .  S
Zr265       O276   2.417       .  S
O266        H322   0.990       .  S
O266        H330   0.990       .  S
O267        C287   1.288       .  A
O268        C289   1.287       .  A
O269       Zr279   2.437       .  S
O269        C288   1.287       .  A
O270       Zr278   2.423       .  S
O270        C289   1.284       .  A
O271        C288   1.281       .  A
O272       Zr280   2.402       .  S
O272        C287   1.278       .  A
O273       Zr278   2.395       .  S
O273       Zr280   2.386       .  S
O274       Zr279   2.391       .  S
O274       Zr280   2.375       .  S
O274        H309   0.966       .  S
O275       Zr278   2.399       .  S
O275       Zr295   2.383       .  S
O275        H312   0.964       .  S
O276       Zr279   2.395       .  S
O276       Zr295   2.400       .  S
Zr277       O302   2.420       .  S
Zr277       O296   2.421   1_455  S
Zr277       O304   2.445       .  S
Zr277       O292   2.444       .  S
Zr277       O283   2.402       .  S
Zr277       O284   2.401       .  S
Zr277       O285   2.376       .  S
Zr277       O286   2.382       .  S
Zr278       O297   2.436       .  S
Zr278       O290   2.435       .  S
Zr278       O291   2.422       .  S
Zr278       O284   2.391       .  S
Zr278       O285   2.387       .  S
Zr279       O281   2.435       .  S
Zr279       O303   2.437       .  S
Zr279       O305   2.452       .  S
Zr279       O283   2.390       .  S
Zr279       O286   2.389       .  S
Zr280       O306   2.436       .  S
Zr280       O307   2.431       .  S
Zr280       O282   2.438       .  S
Zr280       O283   2.401       .  S
Zr280       O284   2.381       .  S
O281        H318   0.990       .  S
O282        H313   0.990       .  S
O282        H327   0.990       .  S
O284        H310   0.965       .  S
O285       Zr295   2.372       .  S
O286       Zr295   2.361       .  S
O286        H311   0.966       .  S
C289        C704   1.473       .  S
O290        H326   0.990       .  S
O291        C293   1.284       .  A
O292        C293   1.288       .  A
O294       Zr295   2.439       .  S
O294       H1907   0.990   1_455  S
Zr295       O298   2.438       .  S
Zr295      O1883   2.440   1_455  S
Zr295      O1884   2.433   1_455  S
O296       C1885   1.282       .  A
O297        H314   0.990       .  S
O297        H329   0.990       .  S
O298       H1899   0.990   1_455  S
O299      Zr1879   2.440       .  S
O299        H319   0.990       .  S
O299        H328   0.990       .  S
O300      Zr1879   2.433       .  S
O300        C301   1.285       .  A
C301       O1880   1.282       .  A
O302        H321   0.990       .  S
O302        H325   0.989       .  S
O303        H317   0.990       .  S
O303        H324   0.990       .  S
O304        C308   1.288       .  A
O305        C308   1.289       .  A
O306        H316   0.990       .  S
O307        H320   0.990       .  S
C308       C1958   1.484   1_455  S
H315       O1882   0.990       .  S
H323       O1878   0.990       .  S
Zr331       O332   2.441       .  S
Zr331       O333   2.453       .  S
Zr331       O334   2.457       .  S
Zr331       O337   2.421       .  S
Zr331       O339   2.381       .  S
Zr331       O340   2.388       .  S
Zr331       O341   2.409       .  S
Zr331       O342   2.417       .  S
O332        H388   0.990       .  S
O332        H396   0.990       .  S
O333        C353   1.288       .  A
O334        C355   1.287       .  A
O335       Zr345   2.437       .  S
O335        C354   1.287       .  A
O336       Zr344   2.423       .  S
O336        C355   1.284       .  A
O337        C354   1.281       .  A
O338       Zr346   2.402       .  S
O338        C353   1.278       .  A
O339       Zr344   2.395       .  S
O339       Zr346   2.386       .  S
O340       Zr345   2.391       .  S
O340       Zr346   2.375       .  S
O340        H375   0.966       .  S
O341       Zr344   2.399       .  S
O341       Zr361   2.383       .  S
O341        H378   0.964       .  S
O342       Zr345   2.395       .  S
O342       Zr361   2.400       .  S
Zr343      O1160   2.420       .  S
Zr343       O362   2.421       .  S
Zr343       O370   2.445       .  S
Zr343      O1150   2.445   1_545  S
Zr343       O349   2.401       .  S
Zr343       O350   2.402       .  S
Zr343       O351   2.376       .  S
Zr343       O352   2.382       .  S
Zr344       O363   2.436   1_545  S
Zr344      O1148   2.435   1_545  S
Zr344      O1149   2.423   1_545  S
Zr344       O350   2.391       .  S
Zr344       O351   2.387       .  S
Zr345       O347   2.435       .  S
Zr345       O369   2.437       .  S
Zr345       O371   2.451       .  S
Zr345       O349   2.391       .  S
Zr345       O352   2.389       .  S
Zr346       O372   2.436       .  S
Zr346       O373   2.431   1_545  S
Zr346      O1140   2.438   1_545  S
Zr346       O349   2.401       .  S
Zr346       O350   2.381       .  S
O347        H384   0.990       .  S
O348      Zr1138   2.438       .  S
O348        H379   0.990       .  S
O348        H393   0.990       .  S
O350       H1168   0.965   1_545  S
O351       Zr361   2.372       .  S
O352       Zr361   2.361       .  S
O352        H377   0.966       .  S
C355        C770   1.473       .  S
O356      Zr1136   2.435       .  S
O356        H392   0.990       .  S
O357      Zr1136   2.423       .  S
O357        C359   1.284       .  A
O358      Zr1135   2.445       .  S
O358        C359   1.288       .  A
O360       Zr361   2.439       .  S
O360       H1973   0.990       .  S
Zr361       O364   2.438       .  S
Zr361      O1949   2.440       .  S
Zr361      O1950   2.434       .  S
O362       C1951   1.282       .  A
O363        H395   0.990   1_565  S
O363       H1172   0.990       .  S
O364       H1965   0.990       .  S
O365      Zr1945   2.440   1_455  S
O365        H385   0.990       .  S
O365        H394   0.990       .  S
O366      Zr1945   2.434   1_455  S
O366        C367   1.285       .  A
C367       O1946   1.282       .  A
O368      Zr1135   2.420       .  S
O368        H391   0.989       .  S
O368       H1179   0.990       .  S
O369        H383   0.990       .  S
O369        H390   0.990       .  S
O370        C374   1.288       .  A
O371        C374   1.289       .  A
O372        H382   0.990       .  S
O373       H1178   0.990       .  S
C374       C1892   1.484       .  S
H376       O1142   0.965       .  S
H380       O1155   0.990       .  S
H381       O1948   0.990   1_455  S
H386       O1165   0.990       .  S
H387       O1160   0.990       .  S
H389       O1944   0.990       .  S
Zr397       O398   2.426       .  S
Zr397       O399   2.426       .  S
Zr397       O400   2.438       .  S
Zr397       O403   2.440       .  S
Zr397       O405   2.379       .  S
Zr397       O406   2.380       .  S
Zr397       O407   2.405       .  S
Zr397       O408   2.400       .  S
O398        H454   0.990       .  S
O398        H462   0.990       .  S
O399        C419   1.282       .  A
O400        C421   1.285       .  A
O401       Zr411   2.417       .  S
O401       C1212   1.283       .  A
O402       Zr410   2.439       .  S
O402        C421   1.286       .  A
O403       C1212   1.287       .  A
O404       Zr412   2.429       .  S
O404        C419   1.284       .  A
O405       Zr410   2.391       .  S
O405       Zr412   2.367       .  S
O406       Zr411   2.388       .  S
O406       Zr412   2.375       .  S
O406        H441   0.966       .  S
O407       Zr410   2.396       .  S
O407       Zr427   2.402       .  S
O407        H444   0.966       .  S
O408       Zr411   2.382       .  S
O408       Zr427   2.384       .  S
Zr409       O434   2.450       .  S
Zr409       O428   2.449       .  S
Zr409       O436   2.449       .  S
Zr409       O424   2.425       .  S
Zr409       O415   2.396       .  S
Zr409       O416   2.413       .  S
Zr409       O417   2.384       .  S
Zr409       O418   2.383       .  S
Zr410       O429   2.436       .  S
Zr410       O422   2.434       .  S
Zr410       O423   2.437       .  S
Zr410       O416   2.397       .  S
Zr410       O417   2.382       .  S
Zr411       O413   2.435       .  S
Zr411       O435   2.440       .  S
Zr411       O437   2.415       .  S
Zr411       O415   2.385       .  S
Zr411       O418   2.382       .  S
Zr412       O438   2.436       .  S
Zr412       O439   2.437       .  S
Zr412       O414   2.437       .  S
Zr412       O415   2.391       .  S
Zr412       O416   2.398       .  S
O413       H1242   0.990       .  S
O414        H445   0.990       .  S
O414        H459   0.990       .  S
O416        H442   0.966       .  S
O417       Zr427   2.377       .  S
O418       Zr427   2.387       .  S
O418        H443   0.965       .  S
C419        C618   1.469       .  S
C420       O1193   1.283       .  A
C420       O1195   1.287   1_545  A
C420        C683   1.469       .  S
C421        C487   1.478   1_556  S
O422        H458   0.990       .  S
O423        C425   1.287       .  A
O424        C425   1.281       .  A
C425        C697   1.470       .  S
O426       Zr427   2.436       .  S
O426        H455   0.990       .  S
Zr427       O430   2.436       .  S
Zr427       O431   2.445       .  S
Zr427       O432   2.408       .  S
O428        C433   1.289       .  A
O429        H446   0.990       .  S
O429        H461   0.990       .  S
O430        H447   0.990       .  S
O431        H451   0.990       .  S
O431        H460   0.989       .  S
O432        C433   1.280       .  A
C433        C623   1.470       .  S
O434        H453   0.990       .  S
O434        H457   0.989       .  S
O435        H449   0.990       .  S
O435        H456   0.990       .  S
O436        C440   1.287       .  A
O437        C440   1.283       .  A
O438        H448   0.990       .  S
O439        H452   0.990       .  S
H450       O1205   0.990       .  S
Zr463       O464   2.426       .  S
Zr463       O465   2.426       .  S
Zr463       O466   2.438       .  S
Zr463      O2053   2.440       .  S
Zr463       O471   2.380       .  S
Zr463       O472   2.380       .  S
Zr463       O473   2.405       .  S
Zr463       O474   2.400       .  S
O464        H520   0.990       .  S
O464        H528   0.990       .  S
O465        C485   1.282       .  A
O466        C487   1.285       .  A
O467      Zr2061   2.417   1_455  S
O467        C486   1.283       .  A
O468       Zr476   2.440       .  S
O468        C487   1.286       .  A
O469      Zr2047   2.440   1_455  S
O469        C486   1.287       .  A
O470       Zr478   2.429       .  S
O470        C485   1.284       .  A
O471       Zr476   2.391       .  S
O471       Zr478   2.367       .  S
O472       Zr477   2.388       .  S
O472       Zr478   2.374       .  S
O472        H507   0.966       .  S
O473       Zr476   2.396       .  S
O473       Zr493   2.402       .  S
O473        H510   0.966       .  S
O474       Zr477   2.383       .  S
O474       Zr493   2.384       .  S
Zr475       O500   2.450       .  S
Zr475       O494   2.449       .  S
Zr475       O502   2.449       .  S
Zr475       O490   2.425       .  S
Zr475       O481   2.396       .  S
Zr475       O482   2.414       .  S
Zr475       O483   2.384       .  S
Zr475       O484   2.383       .  S
Zr476       O495   2.436       .  S
Zr476       O488   2.434       .  S
Zr476       O489   2.438       .  S
Zr476       O482   2.397       .  S
Zr476       O483   2.382       .  S
Zr477       O501   2.440       .  S
Zr477      O2063   2.435       .  S
Zr477       O503   2.415       .  S
Zr477      O2051   2.417       .  S
Zr477       O481   2.384       .  S
Zr477       O484   2.382       .  S
Zr478       O504   2.436       .  S
Zr478       O505   2.437       .  S
Zr478       O480   2.437       .  S
Zr478       O481   2.391       .  S
Zr478       O482   2.398       .  S
O479      Zr2061   2.435   1_455  S
O479        H516   0.990       .  S
O480        H511   0.990       .  S
O480        H525   0.990       .  S
O482        H508   0.966       .  S
O483       Zr493   2.377       .  S
O484       Zr493   2.387       .  S
O484        H509   0.965       .  S
C485        C750   1.469       .  S
C486        C551   1.469       .  S
O488        H524   0.990       .  S
O489        C491   1.287       .  A
O490        C491   1.281       .  A
C491        C565   1.470       .  S
O492       Zr493   2.436       .  S
O492        H521   0.990       .  S
Zr493       O496   2.436       .  S
Zr493      O2081   2.445       .  S
Zr493       O498   2.407       .  S
O494        C499   1.289       .  A
O495        H512   0.990       .  S
O495        H527   0.990       .  S
O496        H513   0.990       .  S
O497      Zr2077   2.445   1_455  S
O497        H517   0.990       .  S
O497        H526   0.989       .  S
O498        C499   1.280       .  A
C499        C755   1.471       .  S
O500        H519   0.990       .  S
O500        H523   0.989       .  S
O501        H515   0.990       .  S
O501        H522   0.990       .  S
O502        C506   1.287       .  A
O503        C506   1.283       .  A
O504        H514   0.990       .  S
O505        H518   0.990       .  S
Zr529       O530   2.426       .  S
Zr529       O532   2.438       .  S
Zr529       O535   2.440       .  S
Zr529      O1323   2.425   1_545  S
Zr529       O537   2.380       .  S
Zr529       O538   2.380       .  S
Zr529       O539   2.405       .  S
Zr529       O540   2.400       .  S
O530        H586   0.990       .  S
O530        H594   0.990       .  S
O531      Zr1321   2.425       .  S
O531        C551   1.282       .  A
O532        C553   1.285   1_545  A
O533       Zr543   2.418       .  S
O533        C552   1.283       .  A
O534       Zr542   2.439       .  S
O534        C553   1.286   1_545  A
O535        C552   1.287       .  A
O536      Zr1336   2.429       .  S
O536        C551   1.284       .  A
O537       Zr542   2.391       .  S
O537       Zr544   2.367       .  S
O538       Zr543   2.388       .  S
O538       Zr544   2.374       .  S
O538        H573   0.966       .  S
O539       Zr542   2.396       .  S
O539       Zr559   2.402       .  S
O539        H576   0.966       .  S
O540       Zr543   2.383       .  S
O540       Zr559   2.384       .  S
Zr541       O566   2.450       .  S
Zr541       O560   2.449       .  S
Zr541       O568   2.448       .  S
Zr541       O556   2.425       .  S
Zr541       O547   2.397       .  S
Zr541       O548   2.413       .  S
Zr541       O549   2.384       .  S
Zr541       O550   2.383       .  S
Zr542       O561   2.436       .  S
Zr542      O1346   2.434   1_545  S
Zr542       O555   2.438       .  S
Zr542       O548   2.396       .  S
Zr542       O549   2.382       .  S
Zr543       O545   2.435       .  S
Zr543       O567   2.440       .  S
Zr543       O569   2.415       .  S
Zr543       O547   2.385       .  S
Zr543       O550   2.383       .  S
Zr544      O1362   2.436   1_545  S
Zr544      O1363   2.436   1_545  S
Zr544      O1338   2.437   1_545  S
Zr544      O1328   2.429   1_545  S
Zr544       O547   2.391       .  S
Zr544       O548   2.398       .  S
O545        H582   0.990       .  S
O546      Zr1336   2.437       .  S
O546        H577   0.990       .  S
O546        H591   0.990       .  S
O548        H574   0.966       .  S
O549       Zr559   2.377       .  S
O550       Zr559   2.387       .  S
O550        H575   0.965       .  S
C552        C749   1.469       .  S
C553       C1411   1.478   1_554  S
O554      Zr1334   2.434       .  S
O554        H590   0.990       .  S
O555        C557   1.287       .  A
O556        C557   1.281       .  A
C557        C763   1.471       .  S
O558       Zr559   2.436       .  S
O558        H587   0.990       .  S
Zr559       O562   2.437       .  S
Zr559       O563   2.445       .  S
Zr559       O564   2.407       .  S
O560        C565   1.289       .  A
O561        H578   0.990       .  S
O561        H593   0.990       .  S
O562        H579   0.990       .  S
O563        H583   0.990       .  S
O563        H592   0.989       .  S
O564        C565   1.280       .  A
O566        H585   0.990       .  S
O566        H589   0.990       .  S
O567        H581   0.990       .  S
O567        H588   0.990       .  S
O568        C572   1.287       .  A
O569        C572   1.283       .  A
O570      Zr1336   2.436       .  S
O570        H580   0.990       .  S
O571      Zr1336   2.436       .  S
O571        H584   0.990       .  S
Zr595       O596   2.426       .  S
Zr595       O597   2.426       .  S
Zr595       O598   2.438       .  S
Zr595       O601   2.439       .  S
Zr595       O603   2.379       .  S
Zr595       O604   2.380       .  S
Zr595       O605   2.405       .  S
Zr595       O606   2.400       .  S
O596        H652   0.990       .  S
O596        H660   0.990       .  S
O597       C1409   1.282       .  A
O598        C619   1.286       .  A
O599      Zr2193   2.418       .  S
O599        C618   1.283       .  A
O600       Zr608   2.439       .  S
O600        C619   1.286       .  A
O601       C2202   1.287   1_455  A
O602      Zr1402   2.429   1_545  S
O602        C617   1.284       .  A
O603       Zr608   2.391       .  S
O603       Zr610   2.367       .  S
O604       Zr609   2.388       .  S
O604       Zr610   2.374       .  S
O604        H639   0.966       .  S
O605       Zr608   2.396       .  S
O605       Zr625   2.402       .  S
O605        H642   0.966       .  S
O606       Zr609   2.383       .  S
O606       Zr625   2.384       .  S
Zr607       O632   2.450       .  S
Zr607       O626   2.449       .  S
Zr607       O634   2.448       .  S
Zr607       O622   2.425       .  S
Zr607       O613   2.396       .  S
Zr607       O614   2.413       .  S
Zr607       O615   2.384       .  S
Zr607       O616   2.383       .  S
Zr608       O627   2.436       .  S
Zr608       O620   2.434       .  S
Zr608       O621   2.438       .  S
Zr608       O614   2.396       .  S
Zr608       O615   2.382       .  S
Zr609       O633   2.440       .  S
Zr609      O2195   2.435   1_455  S
Zr609       O635   2.416       .  S
Zr609      O2183   2.418   1_455  S
Zr609       O613   2.385       .  S
Zr609       O616   2.382       .  S
Zr610       O636   2.436       .  S
Zr610       O637   2.437       .  S
Zr610      O1404   2.437       .  S
Zr610      O1394   2.429       .  S
Zr610       O613   2.391       .  S
Zr610       O614   2.398       .  S
O611      Zr2193   2.435       .  S
O611        H648   0.990       .  S
O612      Zr1402   2.437   1_545  S
O612        H643   0.990       .  S
O612        H657   0.990       .  S
O614        H640   0.966       .  S
O615       Zr625   2.377       .  S
O616       Zr625   2.386       .  S
O616        H641   0.965       .  S
C617       O1389   1.282   1_545  A
C617        C684   1.470       .  S
C618       O2185   1.287       .  A
C619       C1345   1.478   1_556  S
O620        H656   0.990       .  S
O621        C623   1.287       .  A
O622        C623   1.281       .  A
O624       Zr625   2.436       .  S
O624        H653   0.990       .  S
Zr625       O628   2.436       .  S
Zr625       O629   2.445   1_455  S
Zr625       O630   2.407       .  S
O626        C631   1.289       .  A
O627        H644   0.990       .  S
O627        H659   0.990       .  S
O628        H645   0.990       .  S
O629        H649   0.990   1_655  S
O629        H658   0.989       .  S
O630        C631   1.280       .  A
C631        C689   1.470       .  S
O632        H651   0.990       .  S
O632        H655   0.989       .  S
O633        H647   0.990   1_455  S
O633        H654   0.990       .  S
O634        C638   1.287       .  A
O635        C638   1.283       .  A
O636       H1438   0.990       .  S
O637        H650   0.990       .  S
H646       O1428   0.990   1_545  S
Zr661       O662   2.426       .  S
Zr661       O663   2.426   1_455  S
Zr661       O664   2.439       .  S
Zr661       O667   2.440       .  S
Zr661       O669   2.379       .  S
Zr661       O670   2.380       .  S
Zr661       O671   2.405       .  S
Zr661       O672   2.400       .  S
O662        H718   0.990       .  S
O662        H726   0.990       .  S
O663       C2267   1.282       .  A
O664        C685   1.286       .  A
O665       Zr675   2.418       .  S
O665        C684   1.283       .  A
O666       Zr674   2.440       .  S
O666        C685   1.286       .  A
O667        C684   1.287       .  A
O668      Zr2260   2.428       .  S
O668        C683   1.284       .  A
O669       Zr674   2.391       .  S
O669       Zr676   2.367       .  S
O670       Zr675   2.388       .  S
O670       Zr676   2.374       .  S
O670        H705   0.966       .  S
O671       Zr674   2.396       .  S
O671       Zr691   2.402       .  S
O671        H708   0.966       .  S
O672       Zr675   2.383       .  S
O672       Zr691   2.384       .  S
Zr673       O698   2.450       .  S
Zr673       O692   2.449       .  S
Zr673       O700   2.449       .  S
Zr673       O688   2.425       .  S
Zr673       O679   2.396       .  S
Zr673       O680   2.413       .  S
Zr673       O681   2.384       .  S
Zr673       O682   2.383       .  S
Zr674       O693   2.436       .  S
Zr674       O686   2.434       .  S
Zr674       O687   2.438       .  S
Zr674       O680   2.397       .  S
Zr674       O681   2.382       .  S
Zr675       O677   2.435       .  S
Zr675       O699   2.440       .  S
Zr675       O701   2.416       .  S
Zr675       O679   2.385       .  S
Zr675       O682   2.383       .  S
Zr676       O702   2.436       .  S
Zr676       O703   2.436       .  S
Zr676      O2262   2.437   1_455  S
Zr676      O2252   2.428   1_455  S
Zr676       O679   2.391       .  S
Zr676       O680   2.398       .  S
O677        H714   0.990       .  S
O678      Zr2260   2.437       .  S
O678        H709   0.990       .  S
O678        H723   0.990       .  S
O680        H706   0.966       .  S
O681       Zr691   2.377       .  S
O682       Zr691   2.386       .  S
O682        H707   0.965       .  S
C683       O2247   1.282       .  A
C685       C2335   1.478   1_456  S
O686       H2306   0.990   1_455  S
O687        C689   1.287       .  A
O688        C689   1.281       .  A
O690       Zr691   2.436       .  S
O690        H719   0.990       .  S
Zr691       O694   2.437       .  S
Zr691       O695   2.445       .  S
Zr691       O696   2.407       .  S
O692        C697   1.289       .  A
O693        H710   0.990       .  S
O693        H725   0.990       .  S
O694        H711   0.990       .  S
O695        H715   0.990       .  S
O695        H724   0.989       .  S
O696        C697   1.280       .  A
O698        H717   0.990       .  S
O698        H721   0.990       .  S
O699        H713   0.990       .  S
O699        H720   0.990       .  S
O700        C704   1.287       .  A
O701        C704   1.283       .  A
O702       H2296   0.990   1_455  S
O703        H716   0.990       .  S
H712       O2286   0.990       .  S
H722       O2270   0.990       .  S
Zr727      O1520   2.426       .  S
Zr727       O729   2.426       .  S
Zr727       O730   2.439       .  S
Zr727      O1525   2.440   1_545  S
Zr727       O735   2.379       .  S
Zr727       O736   2.380       .  S
Zr727       O737   2.405       .  S
Zr727       O738   2.400       .  S
O728      Zr1519   2.426       .  S
O728        H784   0.990       .  S
O728       H1584   0.990       .  S
O729       C2333   1.282       .  A
O730        C751   1.286       .  A
O731      Zr1533   2.417       .  S
O731        C750   1.283       .  A
O732       Zr740   2.440       .  S
O732        C751   1.286       .  A
O733      Zr1519   2.440       .  S
O733        C750   1.287       .  A
O734      Zr2326   2.429   1_455  S
O734        C749   1.284       .  A
O735       Zr740   2.391       .  S
O735       Zr742   2.367       .  S
O736       Zr741   2.388       .  S
O736       Zr742   2.375       .  S
O736        H771   0.966       .  S
O737       Zr740   2.396       .  S
O737       Zr757   2.402       .  S
O737        H774   0.966       .  S
O738       Zr741   2.382       .  S
O738       Zr757   2.384       .  S
Zr739       O764   2.450       .  S
Zr739       O758   2.449       .  S
Zr739       O766   2.449       .  S
Zr739       O754   2.425       .  S
Zr739       O745   2.396       .  S
Zr739       O746   2.413       .  S
Zr739       O747   2.384       .  S
Zr739       O748   2.383       .  S
Zr740       O759   2.436       .  S
Zr740       O752   2.434       .  S
Zr740       O753   2.438       .  S
Zr740       O746   2.396       .  S
Zr740       O747   2.382       .  S
Zr741       O765   2.440   1_545  S
Zr741      O1535   2.435   1_545  S
Zr741       O767   2.415       .  S
Zr741      O1523   2.417   1_545  S
Zr741       O745   2.385       .  S
Zr741       O748   2.382       .  S
Zr742       O769   2.437       .  S
Zr742      O2352   2.436       .  S
Zr742      O2328   2.437       .  S
Zr742      O2318   2.429       .  S
Zr742       O745   2.391       .  S
Zr742       O746   2.398       .  S
O743      Zr1533   2.435       .  S
O743        H780   0.990       .  S
O744      Zr2326   2.437   1_455  S
O744        H775   0.990       .  S
O744        H789   0.990       .  S
O746        H772   0.966       .  S
O747       Zr757   2.377       .  S
O748       Zr757   2.387       .  S
O748        H773   0.965       .  S
C749       O2313   1.282       .  A
C751       C2269   1.478   1_554  S
O752       H2372   0.990       .  S
O753        C755   1.287       .  A
O754        C755   1.281       .  A
O756      Zr1549   2.436       .  S
O756        H785   0.990       .  S
Zr757       O760   2.436       .  S
Zr757      O1548   2.436   1_545  S
Zr757      O1553   2.445   1_545  S
Zr757       O762   2.407       .  S
O758        C763   1.289       .  A
O759        H776   0.990       .  S
O759        H791   0.990       .  S
O760        H777   0.990       .  S
O761      Zr1549   2.445       .  S
O761        H781   0.990       .  S
O761        H790   0.989       .  S
O762        C763   1.280       .  A
O764        H783   0.990       .  S
O764        H787   0.989       .  S
O765        H786   0.990       .  S
O765       H1571   0.990       .  S
O766        C770   1.287       .  A
O767        C770   1.283       .  A
O768      Zr2326   2.436   1_455  S
O768        H778   0.990       .  S
O769       H2366   0.990       .  S
H779       O1557   0.990       .  S
H782       O2353   0.990   1_655  S
H788       O2336   0.990   1_455  S
H792       O1520   0.990       .  S
Zr793       O794   2.441       .  S
Zr793       O795   2.453       .  S
Zr793       O796   2.456       .  S
Zr793       O799   2.421       .  S
Zr793       O801   2.381       .  S
Zr793       O802   2.388       .  S
Zr793       O803   2.409       .  S
Zr793       O804   2.417       .  S
O794        H850   0.990       .  S
O794        H858   0.990       .  S
O795        C815   1.288       .  A
O796        C817   1.287       .  A
O797       Zr807   2.436       .  S
O797        C816   1.287       .  A
O798       Zr806   2.423       .  S
O798        C817   1.284       .  A
O799        C816   1.281       .  A
O800       Zr808   2.402       .  S
O800        C815   1.278       .  A
O801       Zr806   2.395       .  S
O801       Zr808   2.386       .  S
O802       Zr807   2.390       .  S
O802       Zr808   2.375       .  S
O802        H837   0.966       .  S
O803       Zr806   2.399       .  S
O803       Zr823   2.383       .  S
O803        H840   0.964       .  S
O804       Zr807   2.395       .  S
O804       Zr823   2.400       .  S
Zr805       O830   2.421       .  S
Zr805       O824   2.421       .  S
Zr805       O832   2.445       .  S
Zr805       O820   2.445       .  S
Zr805       O811   2.401       .  S
Zr805       O812   2.401       .  S
Zr805       O813   2.376       .  S
Zr805       O814   2.382       .  S
Zr806       O825   2.437       .  S
Zr806       O818   2.435   1_565  S
Zr806       O819   2.422       .  S
Zr806       O812   2.391       .  S
Zr806       O813   2.387       .  S
Zr807       O809   2.435       .  S
Zr807       O831   2.437       .  S
Zr807       O833   2.451       .  S
Zr807       O811   2.391       .  S
Zr807       O814   2.389       .  S
Zr808       O834   2.436       .  S
Zr808       O835   2.431       .  S
Zr808       O810   2.438       .  S
Zr808       O811   2.401       .  S
Zr808       O812   2.381       .  S
O809        H846   0.991       .  S
O810        H841   0.990       .  S
O810        H855   0.990       .  S
O812        H838   0.965       .  S
O813       Zr823   2.371       .  S
O814       Zr823   2.361       .  S
O814        H839   0.966       .  S
C815       C1014   1.471       .  S
C816       C1079   1.471       .  S
C817       C1232   1.473       .  S
O818        H854   0.990   1_545  S
C821       C1093   1.470       .  S
O822       Zr823   2.439       .  S
O822        H851   0.990       .  S
Zr823       O826   2.438       .  S
Zr823       O827   2.440       .  S
Zr823       O828   2.434       .  S
O824        C829   1.282       .  A
O825        H842   0.990       .  S
O825        H857   0.990       .  S
O826        H843   0.990       .  S
O827        H847   0.990       .  S
O827        H856   0.990       .  S
O828        C829   1.285       .  A
C829       C1019   1.470       .  S
O830        H849   0.990       .  S
O830        H853   0.989       .  S
O831        H845   0.990       .  S
O831        H852   0.990       .  S
O832        C836   1.288       .  A
O833        C836   1.289       .  A
O834        H844   0.990       .  S
O835        H848   0.990       .  S
C836        C902   1.483       .  S
Zr859       O860   2.441       .  S
Zr859       O861   2.453       .  S
Zr859       O862   2.457       .  S
Zr859       O865   2.421       .  S
Zr859       O867   2.381       .  S
Zr859       O868   2.388       .  S
Zr859       O869   2.409       .  S
Zr859       O870   2.417       .  S
O860        H916   0.990       .  S
O860        H924   0.990       .  S
O861        C881   1.288       .  A
O862        C883   1.287       .  A
O863       Zr873   2.437       .  S
O863        C882   1.287       .  A
O864       Zr872   2.423       .  S
O864        C883   1.284       .  A
O865        C882   1.281       .  A
O866       Zr874   2.402       .  S
O866        C881   1.278       .  A
O867       Zr872   2.395       .  S
O867       Zr874   2.387       .  S
O868       Zr873   2.390       .  S
O868       Zr874   2.375       .  S
O868        H903   0.966       .  S
O869       Zr872   2.399       .  S
O869       Zr889   2.383       .  S
O869        H906   0.964       .  S
O870       Zr873   2.395       .  S
O870       Zr889   2.400       .  S
Zr871       O896   2.421       .  S
Zr871       O890   2.422       .  S
Zr871       O898   2.444       .  S
Zr871      O2470   2.444       .  S
Zr871       O877   2.402       .  S
Zr871       O878   2.401       .  S
Zr871       O879   2.376       .  S
Zr871       O880   2.383       .  S
Zr872       O891   2.436       .  S
Zr872      O2468   2.435       .  S
Zr872      O2469   2.422       .  S
Zr872       O878   2.391       .  S
Zr872       O879   2.387       .  S
Zr873       O875   2.435       .  S
Zr873       O897   2.437       .  S
Zr873       O899   2.452       .  S
Zr873       O877   2.391       .  S
Zr873       O880   2.389       .  S
Zr874       O900   2.436       .  S
Zr874       O901   2.432       .  S
Zr874      O2460   2.438       .  S
Zr874       O877   2.401       .  S
Zr874       O878   2.381       .  S
O875        H912   0.991       .  S
O876      Zr2458   2.438   1_455  S
O876        H907   0.990       .  S
O876       H2505   0.990       .  S
O878        H904   0.965       .  S
O879       Zr889   2.372       .  S
O880       Zr889   2.361       .  S
O880        H905   0.966       .  S
C881       C1146   1.471       .  S
C882        C947   1.471       .  S
C883       C1298   1.473       .  S
O884      Zr2456   2.435   1_455  S
O884        H920   0.990       .  S
O885      Zr2456   2.422   1_455  S
O885        C887   1.284       .  A
O886      Zr2455   2.444   1_455  S
O886        C887   1.288       .  A
C887        C961   1.470       .  S
O888       Zr889   2.439       .  S
O888        H917   0.990       .  S
Zr889       O892   2.438       .  S
Zr889       O893   2.440       .  S
Zr889       O894   2.434       .  S
O890        C895   1.282       .  A
O891        H908   0.990       .  S
O891        H923   0.990       .  S
O892        H909   0.990       .  S
O893        H913   0.990       .  S
O893        H922   0.990       .  S
O894        C895   1.285       .  A
C895       C1151   1.471       .  S
O896        H915   0.990       .  S
O896       H2503   0.989       .  S
O897        H911   0.990       .  S
O897        H918   0.990       .  S
O898        C902   1.288       .  A
O899        C902   1.289       .  A
O900        H910   0.990       .  S
O901       H2498   0.990       .  S
H914       O2485   0.990       .  S
H919       O2480   0.989   1_455  S
H921       O2460   0.990       .  S
Zr925       O926   2.441       .  S
Zr925       O927   2.453       .  S
Zr925       O928   2.457       .  S
Zr925       O931   2.422       .  S
Zr925       O933   2.381       .  S
Zr925       O934   2.387       .  S
Zr925       O935   2.409       .  S
Zr925       O936   2.417       .  S
O926        H982   0.990       .  S
O926        H990   0.990       .  S
O927        C947   1.288       .  A
O928        C949   1.287       .  A
O929       Zr939   2.436       .  S
O929        C948   1.287       .  A
O930       Zr938   2.423       .  S
O930        C949   1.284       .  A
O931        C948   1.281       .  A
O932       Zr940   2.401       .  S
O932        C947   1.278       .  A
O933       Zr938   2.395       .  S
O933       Zr940   2.386       .  S
O934       Zr939   2.390       .  S
O934       Zr940   2.375       .  S
O934        H969   0.966       .  S
O935       Zr938   2.399       .  S
O935       Zr955   2.383       .  S
O935        H972   0.964       .  S
O936       Zr939   2.395       .  S
O936       Zr955   2.400       .  S
Zr937       O962   2.421       .  S
Zr937       O964   2.444       .  S
Zr937       O952   2.444       .  S
Zr937       O943   2.402       .  S
Zr937       O944   2.401       .  S
Zr937       O945   2.376       .  S
Zr937       O946   2.382       .  S
Zr938       O957   2.436       .  S
Zr938       O950   2.435       .  S
Zr938       O951   2.422       .  S
Zr938       O944   2.391       .  S
Zr938       O945   2.387       .  S
Zr939       O963   2.437       .  S
Zr939       O965   2.451       .  S
Zr939       O943   2.390       .  S
Zr939       O946   2.389       .  S
Zr940       O966   2.436       .  S
Zr940       O967   2.431       .  S
Zr940       O942   2.438       .  S
Zr940       O943   2.400       .  S
Zr940       O944   2.381       .  S
O941        H978   0.991   1_565  S
O942        H973   0.990       .  S
O942        H987   0.990       .  S
O944        H970   0.965       .  S
O945       Zr955   2.372       .  S
O946       Zr955   2.361       .  S
C948       C1145   1.471       .  S
C949       C1364   1.473       .  S
O950        H986   0.990       .  S
O951        C953   1.284       .  A
O952        C953   1.288       .  A
C953       C1159   1.470       .  S
O954        H983   0.990       .  S
O956        C961   1.282       .  A
O957        H974   0.990       .  S
O957        H989   0.990       .  S
O958        H975   0.990       .  S
O959        H979   0.990       .  S
O959        H988   0.990       .  S
O960        C961   1.285       .  A
O962        H981   0.990       .  S
O962        H985   0.989       .  S
O963        H977   0.990       .  S
O963        H984   0.990       .  S
O964        C968   1.288       .  A
O965        C968   1.289       .  A
O966        H976   0.990       .  S
O967        H980   0.990       .  S
Zr991       O992   2.441       .  S
Zr991       O993   2.453       .  S
Zr991       O994   2.457       .  S
Zr991       O997   2.422       .  S
Zr991       O999   2.381       .  S
Zr991      O1000   2.388       .  S
Zr991      O1001   2.409       .  S
Zr991      O1002   2.417       .  S
O992       H1048   0.990       .  S
O992       H1056   0.990       .  S
O993       C1013   1.288       .  A
O994       C1015   1.287       .  A
O995      Zr1005   2.436       .  S
O995       C1014   1.287       .  A
O996      Zr1004   2.422       .  S
O996       C1015   1.283       .  A
O997       C1014   1.281       .  A
O998      Zr1006   2.402       .  S
O998       C1013   1.278       .  A
O999      Zr1004   2.395       .  S
O999      Zr1006   2.386       .  S
O1000     Zr1005   2.391       .  S
O1000     Zr1006   2.375       .  S
O1000      H1035   0.966       .  S
O1001     Zr1004   2.399       .  S
O1001     Zr1021   2.383       .  S
O1001      H1038   0.964       .  S
O1002     Zr1005   2.395       .  S
O1002     Zr1021   2.400       .  S
Zr1003     O1028   2.421       .  S
Zr1003     O1022   2.421       .  S
Zr1003     O1030   2.444       .  S
Zr1003     O1018   2.445       .  S
Zr1003     O1009   2.401       .  S
Zr1003     O1010   2.401       .  S
Zr1003     O1011   2.376       .  S
Zr1003     O1012   2.383       .  S
Zr1004     O1023   2.436       .  S
Zr1004     O2600   2.435   1_455  S
Zr1004     O2601   2.422   1_455  S
Zr1004     O1010   2.391       .  S
Zr1004     O1011   2.387       .  S
Zr1005     O1007   2.435       .  S
Zr1005     O1029   2.437       .  S
Zr1005     O1031   2.451       .  S
Zr1005     O1009   2.391       .  S
Zr1005     O1012   2.389       .  S
Zr1006     O1032   2.436       .  S
Zr1006     O1033   2.431       .  S
Zr1006     O1008   2.438   1_455  S
Zr1006     O1009   2.401       .  S
Zr1006     O1010   2.381       .  S
O1007      H1044   0.990       .  S
O1008      H2623   0.990       .  S
O1008      H1053   0.990       .  S
O1010      H1036   0.965       .  S
O1011     Zr1021   2.372       .  S
O1012     Zr1021   2.361       .  S
O1012      H1037   0.966       .  S
C1013      C1080   1.471       .  S
C1015      C1430   1.473       .  S
O1016     Zr2588   2.435       .  S
O1016      H1052   0.990       .  S
O1017     Zr2588   2.422       .  S
O1017      C1019   1.284       .  A
O1018      C2603   1.288   1_455  A
C1019      O2602   1.288       .  A
O1020     Zr1021   2.439       .  S
Zr1021     O1024   2.438       .  S
O1023      H1040   0.990   1_455  S
O1023      H1055   0.990       .  S
O1025      H1045   0.990       .  S
O1025      H1054   0.990       .  S
O1026      C1027   1.285       .  A
C1027      C1085   1.470       .  S
O1028      H1047   0.990       .  S
O1028      H2635   0.989       .  S
O1029      H1043   0.990       .  S
O1029      H1050   0.990       .  S
O1030      C1034   1.288       .  A
O1031      C1034   1.289       .  A
O1032      H1042   0.990       .  S
O1033      H2630   0.990       .  S
H1039      O2592   0.990       .  S
H1046      O2617   0.990       .  S
H1051      O2612   0.989       .  S
Zr1057     O1058   2.441       .  S
Zr1057     O1059   2.453       .  S
Zr1057     O1060   2.457       .  S
Zr1057     O1063   2.421       .  S
Zr1057     O1065   2.381       .  S
Zr1057     O1066   2.388       .  S
Zr1057     O1067   2.408       .  S
Zr1057     O1068   2.417       .  S
O1058      H1114   0.990       .  S
O1058      H1122   0.990       .  S
O1059      C1079   1.288       .  A
O1060      C1081   1.287       .  A
O1061     Zr1071   2.437       .  S
O1061      C1080   1.287       .  A
O1062     Zr1070   2.423       .  S
O1062      C1081   1.284       .  A
O1063      C1080   1.281       .  A
O1064     Zr1072   2.402       .  S
O1064      C1079   1.278       .  A
O1065     Zr1070   2.395       .  S
O1065     Zr1072   2.386       .  S
O1066     Zr1071   2.391       .  S
O1066     Zr1072   2.375       .  S
O1066      H1101   0.966       .  S
O1067     Zr1070   2.399       .  S
O1067     Zr1087   2.383       .  S
O1067      H1104   0.964       .  S
O1068     Zr1071   2.395       .  S
O1068     Zr1087   2.400       .  S
Zr1069     O1094   2.420       .  S
Zr1069     O1088   2.421   1_455  S
Zr1069     O1096   2.445       .  S
Zr1069     O1084   2.444       .  S
Zr1069     O1075   2.402       .  S
Zr1069     O1076   2.401       .  S
Zr1069     O1077   2.376       .  S
Zr1069     O1078   2.382       .  S
Zr1070     O1089   2.436       .  S
Zr1070     O1082   2.435       .  S
Zr1070     O1083   2.422       .  S
Zr1070     O1076   2.391       .  S
Zr1070     O1077   2.387       .  S
Zr1071     O1073   2.435       .  S
Zr1071     O1095   2.437       .  S
Zr1071     O1097   2.452       .  S
Zr1071     O1075   2.390       .  S
Zr1071     O1078   2.389       .  S
Zr1072     O1098   2.436       .  S
Zr1072     O1099   2.431       .  S
Zr1072     O1074   2.438       .  S
Zr1072     O1075   2.401       .  S
Zr1072     O1076   2.381       .  S
O1073      H1110   0.990       .  S
O1074      H1105   0.990       .  S
O1074      H1119   0.990       .  S
O1076      H1102   0.965       .  S
O1077     Zr1087   2.372       .  S
O1078     Zr1087   2.361       .  S
O1078      H1103   0.966       .  S
C1081      C1496   1.473       .  S
O1082      H1118   0.990       .  S
O1083      C1085   1.284       .  A
O1084      C1085   1.288       .  A
O1086     Zr1087   2.439       .  S
O1086      H2699   0.990   1_455  S
Zr1087     O1090   2.438       .  S
Zr1087     O2675   2.440   1_455  S
Zr1087     O2676   2.433   1_455  S
O1088      C2677   1.282       .  A
O1089      H1106   0.990       .  S
O1089      H1121   0.990       .  S
O1090      H2691   0.990   1_455  S
O1091     Zr2671   2.440       .  S
O1091      H1111   0.990       .  S
O1091      H1120   0.990       .  S
O1092     Zr2671   2.433       .  S
O1092      C1093   1.285       .  A
C1093      O2672   1.282       .  A
O1094      H1113   0.990       .  S
O1094      H1117   0.989       .  S
O1095      H1109   0.990       .  S
O1095      H1116   0.990       .  S
O1096      C1100   1.288       .  A
O1097      C1100   1.289       .  A
O1098      H1108   0.990       .  S
O1099      H1112   0.990       .  S
C1100      C2750   1.484   1_455  S
H1107      O2674   0.990       .  S
H1115      O2670   0.990       .  S
Zr1123     O1124   2.441       .  S
Zr1123     O1125   2.453       .  S
Zr1123     O1126   2.457       .  S
Zr1123     O1129   2.421       .  S
Zr1123     O1131   2.381       .  S
Zr1123     O1132   2.388       .  S
Zr1123     O1133   2.409       .  S
Zr1123     O1134   2.417       .  S
O1124      H1180   0.990       .  S
O1124      H1188   0.990       .  S
O1125      C1145   1.288       .  A
O1126      C1147   1.287       .  A
O1127     Zr1137   2.437       .  S
O1127      C1146   1.287       .  A
O1128     Zr1136   2.423       .  S
O1128      C1147   1.284       .  A
O1129      C1146   1.281       .  A
O1130     Zr1138   2.402       .  S
O1130      C1145   1.278       .  A
O1131     Zr1136   2.395       .  S
O1131     Zr1138   2.386       .  S
O1132     Zr1137   2.391       .  S
O1132     Zr1138   2.375       .  S
O1132      H1167   0.966       .  S
O1133     Zr1136   2.399       .  S
O1133     Zr1153   2.383       .  S
O1133      H1170   0.964       .  S
O1134     Zr1137   2.395       .  S
O1134     Zr1153   2.400       .  S
Zr1135     O1154   2.421       .  S
Zr1135     O1162   2.445       .  S
Zr1135     O1141   2.401       .  S
Zr1135     O1142   2.402       .  S
Zr1135     O1143   2.376       .  S
Zr1135     O1144   2.382       .  S
Zr1136     O1155   2.436       .  S
Zr1136     O1142   2.391       .  S
Zr1136     O1143   2.387       .  S
Zr1137     O1139   2.435       .  S
Zr1137     O1161   2.437       .  S
Zr1137     O1163   2.451       .  S
Zr1137     O1141   2.391       .  S
Zr1137     O1144   2.389       .  S
Zr1138     O1164   2.436       .  S
Zr1138     O1165   2.431       .  S
Zr1138     O1141   2.401       .  S
Zr1138     O1142   2.381       .  S
O1139      H1176   0.990       .  S
O1140      H1171   0.990       .  S
O1140      H1185   0.990       .  S
O1143     Zr1153   2.371       .  S
O1144     Zr1153   2.361       .  S
O1144      H1169   0.966       .  S
C1147      C1562   1.473       .  S
O1148      H1184   0.990       .  S
O1149      C1151   1.284       .  A
O1150      C1151   1.288       .  A
O1152     Zr1153   2.439       .  S
O1152      H2765   0.990       .  S
Zr1153     O1156   2.438       .  S
Zr1153     O2741   2.440       .  S
Zr1153     O2742   2.434       .  S
O1154      C2743   1.282       .  A
O1155      H1187   0.990       .  S
O1156      H2757   0.990       .  S
O1157     Zr2737   2.440   1_455  S
O1157      H1177   0.990       .  S
O1157      H1186   0.990       .  S
O1158     Zr2737   2.434   1_455  S
O1158      C1159   1.285       .  A
C1159      O2738   1.282       .  A
O1160      H1183   0.989   1_545  S
O1161      H1175   0.990       .  S
O1161      H1182   0.990       .  S
O1162      C1166   1.288       .  A
O1163      C1166   1.289       .  A
O1164      H1174   0.990       .  S
C1166      C2684   1.484       .  S
H1173      O2740   0.990   1_455  S
H1181      O2736   0.990       .  S
Zr1189     O1190   2.426       .  S
Zr1189     O1191   2.426       .  S
Zr1189     O1192   2.438       .  S
Zr1189     O1195   2.440       .  S
Zr1189     O1197   2.379       .  S
Zr1189     O1198   2.380       .  S
Zr1189     O1199   2.405       .  S
Zr1189     O1200   2.400       .  S
O1190      H1246   0.990       .  S
O1190      H1254   0.990       .  S
O1191      C1211   1.282       .  A
O1192      C1213   1.285       .  A
O1193     Zr1203   2.417   1_545  S
O1194     Zr1202   2.439       .  S
O1194      C1213   1.286       .  A
O1196     Zr1204   2.429       .  S
O1196      C1211   1.284       .  A
O1197     Zr1202   2.391       .  S
O1197     Zr1204   2.367       .  S
O1198     Zr1203   2.388       .  S
O1198     Zr1204   2.375       .  S
O1198      H1233   0.966       .  S
O1199     Zr1202   2.396       .  S
O1199     Zr1219   2.402       .  S
O1199      H1236   0.966       .  S
O1200     Zr1203   2.382       .  S
O1200     Zr1219   2.384       .  S
Zr1201     O1226   2.450       .  S
Zr1201     O1220   2.449       .  S
Zr1201     O1228   2.449       .  S
Zr1201     O1216   2.425       .  S
Zr1201     O1207   2.396       .  S
Zr1201     O1208   2.413       .  S
Zr1201     O1209   2.384       .  S
Zr1201     O1210   2.383       .  S
Zr1202     O1221   2.436       .  S
Zr1202     O1214   2.434       .  S
Zr1202     O1215   2.437       .  S
Zr1202     O1208   2.397       .  S
Zr1202     O1209   2.382       .  S
Zr1203     O1205   2.435   1_565  S
Zr1203     O1227   2.440       .  S
Zr1203     O1229   2.415       .  S
Zr1203     O1207   2.385       .  S
Zr1203     O1210   2.382       .  S
Zr1204     O1230   2.436       .  S
Zr1204     O1231   2.437       .  S
Zr1204     O1206   2.437       .  S
Zr1204     O1207   2.391       .  S
Zr1204     O1208   2.398       .  S
O1206      H1237   0.990       .  S
O1206      H1251   0.990       .  S
O1208      H1234   0.966       .  S
O1209     Zr1219   2.377       .  S
O1210     Zr1219   2.387       .  S
O1210      H1235   0.965       .  S
C1211      C1410   1.469       .  S
C1212      C1475   1.469       .  S
C1213      C1279   1.478   1_556  S
O1214      H1250   0.990       .  S
O1215      C1217   1.287       .  A
O1216      C1217   1.281       .  A
C1217      C1489   1.470       .  S
O1218     Zr1219   2.436       .  S
O1218      H1247   0.990       .  S
Zr1219     O1222   2.436       .  S
Zr1219     O1223   2.445       .  S
Zr1219     O1224   2.408       .  S
O1220      C1225   1.289       .  A
O1221      H1238   0.990       .  S
O1221      H1253   0.990       .  S
O1222      H1239   0.990       .  S
O1223      H1243   0.990       .  S
O1223      H1252   0.989       .  S
O1224      C1225   1.280       .  A
C1225      C1415   1.470       .  S
O1226      H1245   0.990       .  S
O1226      H1249   0.989       .  S
O1227      H1241   0.990       .  S
O1227      H1248   0.990       .  S
O1228      C1232   1.287       .  A
O1229      C1232   1.283       .  A
O1230      H1240   0.990       .  S
O1231      H1244   0.990       .  S
Zr1255     O1256   2.426       .  S
Zr1255     O1257   2.426       .  S
Zr1255     O1258   2.438       .  S
Zr1255     O2845   2.440       .  S
Zr1255     O1263   2.380       .  S
Zr1255     O1264   2.380       .  S
Zr1255     O1265   2.405       .  S
Zr1255     O1266   2.400       .  S
O1256      H1312   0.990       .  S
O1256      H1320   0.990       .  S
O1257      C1277   1.282       .  A
O1258      C1279   1.285       .  A
O1259     Zr2853   2.417   1_455  S
O1259      C1278   1.283       .  A
O1260     Zr1268   2.440       .  S
O1260      C1279   1.286       .  A
O1261     Zr2839   2.440   1_455  S
O1261      C1278   1.287       .  A
O1262     Zr1270   2.429       .  S
O1262      C1277   1.284       .  A
O1263     Zr1268   2.391       .  S
O1263     Zr1270   2.367       .  S
O1264     Zr1269   2.388       .  S
O1264     Zr1270   2.374       .  S
O1264      H1299   0.966       .  S
O1265     Zr1268   2.396       .  S
O1265     Zr1285   2.402       .  S
O1265      H1302   0.966       .  S
O1266     Zr1269   2.383       .  S
O1266     Zr1285   2.384       .  S
Zr1267     O1292   2.450       .  S
Zr1267     O1286   2.449       .  S
Zr1267     O1294   2.449       .  S
Zr1267     O1282   2.425       .  S
Zr1267     O1273   2.396       .  S
Zr1267     O1274   2.414       .  S
Zr1267     O1275   2.384       .  S
Zr1267     O1276   2.383       .  S
Zr1268     O1287   2.436       .  S
Zr1268     O1280   2.434       .  S
Zr1268     O1281   2.438       .  S
Zr1268     O1274   2.397       .  S
Zr1268     O1275   2.382       .  S
Zr1269     O2855   2.435       .  S
Zr1269     O1293   2.440       .  S
Zr1269     O2843   2.417       .  S
Zr1269     O1295   2.415       .  S
Zr1269     O1273   2.384       .  S
Zr1269     O1276   2.382       .  S
Zr1270     O1296   2.436       .  S
Zr1270     O1297   2.437       .  S
Zr1270     O1272   2.437       .  S
Zr1270     O1273   2.391       .  S
Zr1270     O1274   2.398       .  S
O1271     Zr2853   2.435   1_455  S
O1271      H1308   0.990       .  S
O1272      H1303   0.990       .  S
O1272      H1317   0.990       .  S
O1274      H1300   0.966       .  S
O1275     Zr1285   2.377       .  S
O1276     Zr1285   2.387       .  S
O1276      H1301   0.965       .  S
C1277      C1542   1.469       .  S
C1278      C1343   1.469       .  S
O1280      H1316   0.990       .  S
O1281      C1283   1.287       .  A
O1282      C1283   1.281       .  A
C1283      C1357   1.470       .  S
O1284     Zr1285   2.436       .  S
O1284      H1313   0.990       .  S
Zr1285     O1288   2.436       .  S
Zr1285     O2873   2.445       .  S
Zr1285     O1290   2.407       .  S
O1286      C1291   1.289       .  A
O1287      H1304   0.990       .  S
O1287      H1319   0.990       .  S
O1288      H1305   0.990       .  S
O1289     Zr2869   2.445   1_455  S
O1289      H1309   0.990       .  S
O1289      H1318   0.989       .  S
O1290      C1291   1.280       .  A
C1291      C1547   1.471       .  S
O1292      H1311   0.990       .  S
O1292      H1315   0.989       .  S
O1293      H1307   0.990       .  S
O1293      H1314   0.990       .  S
O1294      C1298   1.287       .  A
O1295      C1298   1.283       .  A
O1296      H1306   0.990       .  S
O1297      H1310   0.990       .  S
Zr1321     O1322   2.426       .  S
Zr1321     O1324   2.438       .  S
Zr1321     O1327   2.440       .  S
Zr1321     O1329   2.380       .  S
Zr1321     O1330   2.380       .  S
Zr1321     O1331   2.405       .  S
Zr1321     O1332   2.400       .  S
O1322      H1378   0.990       .  S
O1322      H1386   0.990       .  S
O1323      C1343   1.282       .  A
O1324      C1345   1.285       .  A
O1325     Zr1335   2.418       .  S
O1325      C1344   1.283       .  A
O1326     Zr1334   2.439       .  S
O1326      C1345   1.286       .  A
O1327      C1344   1.287       .  A
O1328      C1343   1.284       .  A
O1329     Zr1334   2.391       .  S
O1329     Zr1336   2.367       .  S
O1330     Zr1335   2.388       .  S
O1330     Zr1336   2.374       .  S
O1330      H1365   0.966       .  S
O1331     Zr1334   2.396       .  S
O1331     Zr1351   2.402       .  S
O1331      H1368   0.966       .  S
O1332     Zr1335   2.383       .  S
O1332     Zr1351   2.384       .  S
Zr1333     O1358   2.450       .  S
Zr1333     O1352   2.449       .  S
Zr1333     O1360   2.448       .  S
Zr1333     O1348   2.425       .  S
Zr1333     O1339   2.397       .  S
Zr1333     O1340   2.413       .  S
Zr1333     O1341   2.384       .  S
Zr1333     O1342   2.383       .  S
Zr1334     O1353   2.436       .  S
Zr1334     O1347   2.438       .  S
Zr1334     O1340   2.396       .  S
Zr1334     O1341   2.382       .  S
Zr1335     O1337   2.435       .  S
Zr1335     O1359   2.440       .  S
Zr1335     O1361   2.416       .  S
Zr1335     O1339   2.385       .  S
Zr1335     O1342   2.383       .  S
Zr1336     O1339   2.391       .  S
Zr1336     O1340   2.398       .  S
O1337      H1374   0.990       .  S
O1338      H1369   0.990       .  S
O1338      H1383   0.990       .  S
O1340      H1366   0.966       .  S
O1341     Zr1351   2.377       .  S
O1342     Zr1351   2.387       .  S
O1342      H1367   0.965       .  S
C1344      C1541   1.469       .  S
O1346      H1382   0.990       .  S
O1347      C1349   1.287       .  A
O1348      C1349   1.281       .  A
C1349      C1555   1.471       .  S
O1350     Zr1351   2.436       .  S
O1350      H1379   0.990       .  S
Zr1351     O1354   2.437       .  S
Zr1351     O1355   2.445       .  S
Zr1351     O1356   2.407       .  S
O1352      C1357   1.289       .  A
O1353      H1370   0.990       .  S
O1353      H1385   0.990       .  S
O1354      H1371   0.990       .  S
O1355      H1375   0.990       .  S
O1355      H1384   0.989       .  S
O1356      C1357   1.280       .  A
O1358      H1377   0.990       .  S
O1358      H1381   0.990       .  S
O1359      H1373   0.990       .  S
O1359      H1380   0.990       .  S
O1360      C1364   1.287       .  A
O1361      C1364   1.283       .  A
O1362      H1372   0.990       .  S
O1363      H1376   0.990   1_565  S
Zr1387     O1388   2.426       .  S
Zr1387     O1389   2.426       .  S
Zr1387     O1390   2.438       .  S
Zr1387     O1393   2.439       .  S
Zr1387     O1395   2.379       .  S
Zr1387     O1396   2.380       .  S
Zr1387     O1397   2.405       .  S
Zr1387     O1398   2.400       .  S
O1388      H1444   0.990       .  S
O1388      H1452   0.990       .  S
O1390      C1411   1.286       .  A
O1391     Zr2985   2.418       .  S
O1391      C1410   1.283       .  A
O1392     Zr1400   2.439       .  S
O1392      C1411   1.286       .  A
O1393      C2994   1.287   1_455  A
O1394      C1409   1.284       .  A
O1395     Zr1400   2.391       .  S
O1395     Zr1402   2.367       .  S
O1396     Zr1401   2.388       .  S
O1396     Zr1402   2.374       .  S
O1396      H1431   0.966       .  S
O1397     Zr1400   2.396       .  S
O1397     Zr1417   2.402       .  S
O1397      H1434   0.966       .  S
O1398     Zr1401   2.383       .  S
O1398     Zr1417   2.384       .  S
Zr1399     O1424   2.450       .  S
Zr1399     O1418   2.449       .  S
Zr1399     O1426   2.448       .  S
Zr1399     O1414   2.425       .  S
Zr1399     O1405   2.396       .  S
Zr1399     O1406   2.413       .  S
Zr1399     O1407   2.384       .  S
Zr1399     O1408   2.383       .  S
Zr1400     O1419   2.436       .  S
Zr1400     O1412   2.434       .  S
Zr1400     O1413   2.438       .  S
Zr1400     O1406   2.396       .  S
Zr1400     O1407   2.382       .  S
Zr1401     O2987   2.435   1_455  S
Zr1401     O1425   2.440       .  S
Zr1401     O2975   2.418   1_455  S
Zr1401     O1427   2.416       .  S
Zr1401     O1405   2.385       .  S
Zr1401     O1408   2.382       .  S
Zr1402     O1428   2.436       .  S
Zr1402     O1429   2.437       .  S
Zr1402     O1405   2.391       .  S
Zr1402     O1406   2.398       .  S
O1403     Zr2985   2.435       .  S
O1403      H1440   0.990       .  S
O1404      H1435   0.990       .  S
O1404      H1449   0.990       .  S
O1406      H1432   0.966       .  S
O1407     Zr1417   2.377       .  S
O1408     Zr1417   2.386       .  S
O1408      H1433   0.965       .  S
C1409      C1476   1.470       .  S
C1410      O2977   1.287       .  A
O1412      H1448   0.990       .  S
O1413      C1415   1.287       .  A
O1414      C1415   1.281       .  A
O1416     Zr1417   2.436       .  S
O1416      H1445   0.990       .  S
Zr1417     O1420   2.436       .  S
Zr1417     O1421   2.445   1_455  S
Zr1417     O1422   2.407       .  S
O1418      C1423   1.289       .  A
O1419      H1436   0.990       .  S
O1419      H1451   0.990       .  S
O1420      H1437   0.990       .  S
O1421      H1441   0.990   1_655  S
O1421      H1450   0.989       .  S
O1422      C1423   1.280       .  A
C1423      C1481   1.470       .  S
O1424      H1443   0.990       .  S
O1424      H1447   0.989       .  S
O1425      H1439   0.990   1_455  S
O1425      H1446   0.990       .  S
O1426      C1430   1.287       .  A
O1427      C1430   1.283       .  A
O1429      H1442   0.990       .  S
Zr1453     O1454   2.426       .  S
Zr1453     O1455   2.426   1_455  S
Zr1453     O1456   2.439       .  S
Zr1453     O1459   2.440       .  S
Zr1453     O1461   2.379       .  S
Zr1453     O1462   2.380       .  S
Zr1453     O1463   2.405       .  S
Zr1453     O1464   2.400       .  S
O1454      H1510   0.990       .  S
O1454      H1518   0.990       .  S
O1455      C3059   1.282       .  A
O1456      C1477   1.286       .  A
O1457     Zr1467   2.418       .  S
O1457      C1476   1.283       .  A
O1458     Zr1466   2.440       .  S
O1458      C1477   1.286       .  A
O1459      C1476   1.287       .  A
O1460     Zr3052   2.428       .  S
O1460      C1475   1.284       .  A
O1461     Zr1466   2.391       .  S
O1461     Zr1468   2.367       .  S
O1462     Zr1467   2.388       .  S
O1462     Zr1468   2.374       .  S
O1462      H1497   0.966       .  S
O1463     Zr1466   2.396       .  S
O1463     Zr1483   2.402       .  S
O1463      H1500   0.966       .  S
O1464     Zr1467   2.383       .  S
O1464     Zr1483   2.384       .  S
Zr1465     O1490   2.450       .  S
Zr1465     O1484   2.449       .  S
Zr1465     O1492   2.449       .  S
Zr1465     O1480   2.425       .  S
Zr1465     O1471   2.396       .  S
Zr1465     O1472   2.413       .  S
Zr1465     O1473   2.384       .  S
Zr1465     O1474   2.383       .  S
Zr1466     O1485   2.436       .  S
Zr1466     O1478   2.434       .  S
Zr1466     O1479   2.438       .  S
Zr1466     O1472   2.397       .  S
Zr1466     O1473   2.382       .  S
Zr1467     O1469   2.435       .  S
Zr1467     O1491   2.440       .  S
Zr1467     O1493   2.416       .  S
Zr1467     O1471   2.385       .  S
Zr1467     O1474   2.383       .  S
Zr1468     O1494   2.436       .  S
Zr1468     O1495   2.436       .  S
Zr1468     O3054   2.437   1_455  S
Zr1468     O3044   2.428   1_455  S
Zr1468     O1471   2.391       .  S
Zr1468     O1472   2.398       .  S
O1469      H1506   0.990       .  S
O1470     Zr3052   2.437       .  S
O1470      H1501   0.990       .  S
O1470      H1515   0.990       .  S
O1472      H1498   0.966       .  S
O1473     Zr1483   2.377       .  S
O1474     Zr1483   2.386       .  S
O1474      H1499   0.965       .  S
C1475      O3039   1.282       .  A
C1477      C3127   1.478   1_456  S
O1478      H3098   0.990   1_455  S
O1479      C1481   1.287       .  A
O1480      C1481   1.281       .  A
O1482     Zr1483   2.436       .  S
O1482      H1511   0.990       .  S
Zr1483     O1486   2.437       .  S
Zr1483     O1487   2.445       .  S
Zr1483     O1488   2.407       .  S
O1484      C1489   1.289       .  A
O1485      H1502   0.990       .  S
O1485      H1517   0.990       .  S
O1486      H1503   0.990       .  S
O1487      H1507   0.990       .  S
O1487      H1516   0.989       .  S
O1488      C1489   1.280       .  A
O1490      H1509   0.990       .  S
O1490      H1513   0.990       .  S
O1491      H1505   0.990       .  S
O1491      H1512   0.990       .  S
O1492      C1496   1.287       .  A
O1493      C1496   1.283       .  A
O1494      H3088   0.990   1_455  S
O1495      H1508   0.990       .  S
H1504      O3078   0.990       .  S
H1514      O3062   0.990       .  S
Zr1519     O1521   2.426       .  S
Zr1519     O1522   2.439       .  S
Zr1519     O1527   2.379       .  S
Zr1519     O1528   2.380       .  S
Zr1519     O1529   2.405       .  S
Zr1519     O1530   2.400       .  S
O1520      H1576   0.990       .  S
O1521      C3125   1.282       .  A
O1522      C1543   1.286       .  A
O1523      C1542   1.283       .  A
O1524     Zr1532   2.440       .  S
O1524      C1543   1.286       .  A
O1525      C1542   1.287       .  A
O1526     Zr3118   2.429   1_455  S
O1526      C1541   1.284       .  A
O1527     Zr1532   2.391       .  S
O1527     Zr1534   2.367       .  S
O1528     Zr1533   2.388       .  S
O1528     Zr1534   2.375       .  S
O1528      H1563   0.966       .  S
O1529     Zr1532   2.396       .  S
O1529     Zr1549   2.402       .  S
O1529      H1566   0.966       .  S
O1530     Zr1533   2.382       .  S
O1530     Zr1549   2.384       .  S
Zr1531     O1556   2.450       .  S
Zr1531     O1550   2.449       .  S
Zr1531     O1558   2.449       .  S
Zr1531     O1546   2.425       .  S
Zr1531     O1537   2.396       .  S
Zr1531     O1538   2.413       .  S
Zr1531     O1539   2.384       .  S
Zr1531     O1540   2.383       .  S
Zr1532     O1551   2.436       .  S
Zr1532     O1544   2.434       .  S
Zr1532     O1545   2.438       .  S
Zr1532     O1538   2.396       .  S
Zr1532     O1539   2.382       .  S
Zr1533     O1557   2.440       .  S
Zr1533     O1559   2.415       .  S
Zr1533     O1537   2.385       .  S
Zr1533     O1540   2.382       .  S
Zr1534     O3144   2.436       .  S
Zr1534     O1561   2.437       .  S
Zr1534     O3120   2.437       .  S
Zr1534     O3110   2.429       .  S
Zr1534     O1537   2.391       .  S
Zr1534     O1538   2.398       .  S
O1535      H1572   0.990       .  S
O1536     Zr3118   2.437   1_455  S
O1536      H1567   0.990       .  S
O1536      H1581   0.990       .  S
O1538      H1564   0.966       .  S
O1539     Zr1549   2.377       .  S
O1540     Zr1549   2.387       .  S
O1540      H1565   0.965       .  S
C1541      O3105   1.282       .  A
C1543      C3061   1.478   1_554  S
O1544      H3164   0.990       .  S
O1545      C1547   1.287       .  A
O1546      C1547   1.281       .  A
O1548      H1577   0.990       .  S
Zr1549     O1552   2.436       .  S
Zr1549     O1554   2.407       .  S
O1550      C1555   1.289       .  A
O1551      H1568   0.990       .  S
O1551      H1583   0.990       .  S
O1552      H1569   0.990       .  S
O1553      H1573   0.990       .  S
O1553      H1582   0.989       .  S
O1554      C1555   1.280       .  A
O1556      H1575   0.990       .  S
O1556      H1579   0.989       .  S
O1557      H1578   0.990       .  S
O1558      C1562   1.287       .  A
O1559      C1562   1.283       .  A
O1560     Zr3118   2.436   1_455  S
O1560      H1570   0.990       .  S
O1561      H3158   0.990       .  S
H1574      O3145   0.990   1_655  S
H1580      O3128   0.990   1_455  S
Zr1585     O1586   2.441       .  S
Zr1585     O1587   2.453       .  S
Zr1585     O1588   2.456       .  S
Zr1585     O1591   2.421       .  S
Zr1585     O1593   2.381       .  S
Zr1585     O1594   2.388       .  S
Zr1585     O1595   2.409       .  S
Zr1585     O1596   2.417       .  S
O1586      H1642   0.990       .  S
O1586      H1650   0.990       .  S
O1587      C1607   1.288       .  A
O1588      C1609   1.287       .  A
O1589     Zr1599   2.436       .  S
O1589      C1608   1.287       .  A
O1590     Zr1598   2.423       .  S
O1590      C1609   1.284       .  A
O1591      C1608   1.281       .  A
O1592     Zr1600   2.402       .  S
O1592      C1607   1.278       .  A
O1593     Zr1598   2.395       .  S
O1593     Zr1600   2.386       .  S
O1594     Zr1599   2.390       .  S
O1594     Zr1600   2.375       .  S
O1594      H1629   0.966       .  S
O1595     Zr1598   2.399       .  S
O1595     Zr1615   2.383       .  S
O1595      H1632   0.964       .  S
O1596     Zr1599   2.395       .  S
O1596     Zr1615   2.400       .  S
Zr1597     O1622   2.421       .  S
Zr1597     O1616   2.421       .  S
Zr1597     O1624   2.445       .  S
Zr1597     O1612   2.445       .  S
Zr1597     O1603   2.401       .  S
Zr1597     O1604   2.401       .  S
Zr1597     O1605   2.376       .  S
Zr1597     O1606   2.382       .  S
Zr1598     O1617   2.437       .  S
Zr1598     O1610   2.435       .  S
Zr1598     O1611   2.422       .  S
Zr1598     O1604   2.391       .  S
Zr1598     O1605   2.387       .  S
Zr1599     O1601   2.435       .  S
Zr1599     O1623   2.437       .  S
Zr1599     O1625   2.451       .  S
Zr1599     O1603   2.391       .  S
Zr1599     O1606   2.389       .  S
Zr1600     O1626   2.436       .  S
Zr1600     O1627   2.431       .  S
Zr1600     O1602   2.438       .  S
Zr1600     O1603   2.401       .  S
Zr1600     O1604   2.381       .  S
O1601      H1638   0.991       .  S
O1602      H1633   0.990       .  S
O1602      H1647   0.990       .  S
O1604      H1630   0.965       .  S
O1605     Zr1615   2.371       .  S
O1606     Zr1615   2.361       .  S
O1606      H1631   0.966       .  S
C1607      C1806   1.471       .  S
C1608      C1871   1.471       .  S
C1609      C2024   1.473       .  S
O1610      H1646   0.990       .  S
O1611      C2405   1.284       .  A
O1612      C2405   1.288       .  A
C1613      O2403   1.284   1_545  A
C1613      O2404   1.288   1_545  A
C1613      C1885   1.470       .  S
O1614     Zr1615   2.439       .  S
O1614      H1643   0.990       .  S
Zr1615     O1618   2.438       .  S
Zr1615     O1619   2.440       .  S
Zr1615     O1620   2.434       .  S
O1616      C1621   1.282       .  A
O1617      H1634   0.990       .  S
O1617      H1649   0.990       .  S
O1618      H1635   0.990       .  S
O1619      H1639   0.990       .  S
O1619      H1648   0.990       .  S
O1620      C1621   1.285       .  A
C1621      C1811   1.470       .  S
O1622      H1641   0.990       .  S
O1622      H1645   0.989       .  S
O1623      H1637   0.990       .  S
O1623      H1644   0.990       .  S
O1624      C1628   1.288       .  A
O1625      C1628   1.289       .  A
O1626      H1636   0.990       .  S
O1627      H1640   0.990       .  S
C1628      C1694   1.483       .  S
Zr1651     O1652   2.441       .  S
Zr1651     O1653   2.453       .  S
Zr1651     O1654   2.457       .  S
Zr1651     O1657   2.421       .  S
Zr1651     O1659   2.381       .  S
Zr1651     O1660   2.388       .  S
Zr1651     O1661   2.409       .  S
Zr1651     O1662   2.417       .  S
O1652      H1708   0.990       .  S
O1652      H1716   0.990       .  S
O1653      C1673   1.288       .  A
O1654      C1675   1.287       .  A
O1655     Zr1665   2.437       .  S
O1655      C1674   1.287       .  A
O1656     Zr1664   2.423       .  S
O1656      C1675   1.284       .  A
O1657      C1674   1.281       .  A
O1658     Zr1666   2.402       .  S
O1658      C1673   1.278       .  A
O1659     Zr1664   2.395       .  S
O1659     Zr1666   2.387       .  S
O1660     Zr1665   2.390       .  S
O1660     Zr1666   2.375       .  S
O1660      H1695   0.966       .  S
O1661     Zr1664   2.399       .  S
O1661     Zr1681   2.383       .  S
O1661      H1698   0.964       .  S
O1662     Zr1665   2.395       .  S
O1662     Zr1681   2.400       .  S
Zr1663     O1688   2.421       .  S
Zr1663     O1682   2.422       .  S
Zr1663     O1690   2.444       .  S
Zr1663     O1669   2.402       .  S
Zr1663     O1670   2.401       .  S
Zr1663     O1671   2.376       .  S
Zr1663     O1672   2.383       .  S
Zr1664     O1683   2.436       .  S
Zr1664     O1670   2.391       .  S
Zr1664     O1671   2.387       .  S
Zr1665     O1667   2.435       .  S
Zr1665     O1689   2.437       .  S
Zr1665     O1691   2.452       .  S
Zr1665     O1669   2.391       .  S
Zr1665     O1672   2.389       .  S
Zr1666     O1692   2.436       .  S
Zr1666     O1693   2.432       .  S
Zr1666     O1669   2.401       .  S
Zr1666     O1670   2.381       .  S
O1667      H1704   0.991       .  S
O1668      H1699   0.990       .  S
O1670      H1696   0.965       .  S
O1671     Zr1681   2.372       .  S
O1672     Zr1681   2.361       .  S
O1672      H1697   0.966       .  S
C1673      C1938   1.471       .  S
C1674      C1739   1.471       .  S
C1675      C2090   1.473       .  S
O1676      H1712   0.990       .  S
O1677      C1679   1.284       .  A
O1678      C1679   1.288       .  A
C1679      C1753   1.470       .  S
O1680     Zr1681   2.439       .  S
O1680      H1709   0.990       .  S
Zr1681     O1684   2.438       .  S
Zr1681     O1685   2.440       .  S
Zr1681     O1686   2.434       .  S
O1682      C1687   1.282       .  A
O1683      H1700   0.990   1_655  S
O1683      H1715   0.990       .  S
O1684      H1701   0.990       .  S
O1685      H1705   0.990       .  S
O1685      H1714   0.990       .  S
O1686      C1687   1.285       .  A
C1687      C1943   1.471       .  S
O1688      H1707   0.990       .  S
O1689      H1703   0.990       .  S
O1689      H1710   0.990       .  S
O1690      C1694   1.288       .  A
O1691      C1694   1.289       .  A
O1692      H1702   0.990       .  S
Zr1717     O1718   2.441       .  S
Zr1717     O1719   2.453       .  S
Zr1717     O1720   2.457       .  S
Zr1717     O1723   2.422       .  S
Zr1717     O1725   2.381       .  S
Zr1717     O1726   2.387       .  S
Zr1717     O1727   2.409       .  S
Zr1717     O1728   2.417       .  S
O1718      H1774   0.990       .  S
O1718      H1782   0.990       .  S
O1719      C1739   1.288       .  A
O1720      C1741   1.287       .  A
O1721     Zr1731   2.436       .  S
O1721      C1740   1.287       .  A
O1722     Zr1730   2.423       .  S
O1722      C1741   1.284       .  A
O1723      C1740   1.281       .  A
O1724     Zr1732   2.401       .  S
O1724      C1739   1.278       .  A
O1725     Zr1730   2.395       .  S
O1725     Zr1732   2.386       .  S
O1726     Zr1731   2.390       .  S
O1726     Zr1732   2.375       .  S
O1726      H1761   0.966       .  S
O1727     Zr1730   2.399       .  S
O1727     Zr1747   2.383       .  S
O1727      H1764   0.964       .  S
O1728     Zr1731   2.395       .  S
O1728     Zr1747   2.400       .  S
Zr1729     O1754   2.421       .  S
Zr1729     O2540   2.421   1_545  S
Zr1729     O1756   2.444       .  S
Zr1729     O1744   2.444       .  S
Zr1729     O1735   2.402       .  S
Zr1729     O1736   2.401       .  S
Zr1729     O1737   2.376       .  S
Zr1729     O1738   2.382       .  S
Zr1730     O1749   2.436       .  S
Zr1730     O1742   2.435       .  S
Zr1730     O1743   2.422       .  S
Zr1730     O1736   2.391       .  S
Zr1730     O1737   2.387       .  S
Zr1731     O2525   2.435   1_545  S
Zr1731     O1755   2.437       .  S
Zr1731     O1757   2.451       .  S
Zr1731     O1735   2.390       .  S
Zr1731     O1738   2.389       .  S
Zr1732     O1758   2.436       .  S
Zr1732     O1759   2.431       .  S
Zr1732     O1734   2.438       .  S
Zr1732     O1735   2.400       .  S
Zr1732     O1736   2.381       .  S
O1733     Zr2523   2.435       .  S
O1733      H1770   0.991       .  S
O1734      H1765   0.990       .  S
O1734      H1779   0.990       .  S
O1736      H1762   0.965       .  S
O1737     Zr1747   2.372       .  S
O1738     Zr1747   2.361       .  S
O1738      H2555   0.966   1_545  S
C1740      C1937   1.471       .  S
C1741      C2156   1.473       .  S
O1742      H1778   0.990       .  S
O1743      C1745   1.284       .  A
O1744      C1745   1.288       .  A
C1745      C1951   1.470       .  S
O1746     Zr2539   2.439       .  S
O1746      H1775   0.990       .  S
Zr1747     O2538   2.439   1_545  S
Zr1747     O2542   2.438   1_545  S
Zr1747     O2543   2.440   1_545  S
Zr1747     O2544   2.434   1_545  S
O1748     Zr2521   2.421       .  S
O1748      C1753   1.282       .  A
O1749      H1766   0.990       .  S
O1749      H1781   0.990       .  S
O1750     Zr2539   2.438       .  S
O1750      H1767   0.990       .  S
O1751     Zr2539   2.440       .  S
O1751      H1771   0.990       .  S
O1751      H1780   0.990       .  S
O1752     Zr2539   2.434       .  S
O1752      C1753   1.285       .  A
O1754      H1773   0.990       .  S
O1754      H1777   0.989       .  S
O1755      H1769   0.990       .  S
O1755      H1776   0.990       .  S
O1756      C1760   1.288   1_545  A
O1757      C1760   1.289   1_545  A
O1758      H1768   0.990       .  S
O1759      H1772   0.990       .  S
C1760      C2618   1.483       .  S
H1763      O2530   0.966       .  S
Zr1783     O1784   2.441       .  S
Zr1783     O1785   2.453       .  S
Zr1783     O1786   2.457       .  S
Zr1783     O1789   2.422       .  S
Zr1783     O1791   2.381       .  S
Zr1783     O1792   2.388       .  S
Zr1783     O1793   2.409       .  S
Zr1783     O1794   2.417       .  S
O1784      H1840   0.990       .  S
O1784      H1848   0.990       .  S
O1785      C1805   1.288       .  A
O1786      C1807   1.287       .  A
O1787     Zr1797   2.436       .  S
O1787      C1806   1.287       .  A
O1788     Zr1796   2.422       .  S
O1788      C1807   1.283       .  A
O1789      C1806   1.281       .  A
O1790     Zr1798   2.402       .  S
O1790      C1805   1.278       .  A
O1791     Zr1796   2.395       .  S
O1791     Zr1798   2.386       .  S
O1792     Zr1797   2.391       .  S
O1792     Zr1798   2.375       .  S
O1792      H1827   0.966       .  S
O1793     Zr1796   2.399       .  S
O1793     Zr1813   2.383       .  S
O1793      H1830   0.964       .  S
O1794     Zr1797   2.395       .  S
O1794     Zr1813   2.400       .  S
Zr1795     O1820   2.421       .  S
Zr1795     O1814   2.421       .  S
Zr1795     O1822   2.444       .  S
Zr1795     O1810   2.445       .  S
Zr1795     O1801   2.401       .  S
Zr1795     O1802   2.401       .  S
Zr1795     O1803   2.376       .  S
Zr1795     O1804   2.383       .  S
Zr1796     O1815   2.436       .  S
Zr1796     O1802   2.391       .  S
Zr1796     O1803   2.387       .  S
Zr1797     O1799   2.435       .  S
Zr1797     O1821   2.437       .  S
Zr1797     O1823   2.451       .  S
Zr1797     O1801   2.391       .  S
Zr1797     O1804   2.389       .  S
Zr1798     O1824   2.436       .  S
Zr1798     O1825   2.431       .  S
Zr1798     O1800   2.438       .  S
Zr1798     O1801   2.401       .  S
Zr1798     O1802   2.381       .  S
O1799      H1836   0.990       .  S
O1800      H1845   0.990       .  S
O1802      H1828   0.965       .  S
O1803     Zr1813   2.372       .  S
O1804     Zr1813   2.361       .  S
O1804      H1829   0.966       .  S
C1805      C1872   1.471       .  S
C1807      C2222   1.473       .  S
O1808      H1844   0.990       .  S
O1809      C1811   1.284       .  A
O1812     Zr1813   2.439       .  S
O1812      H2633   0.990       .  S
Zr1813     O1816   2.438       .  S
Zr1813     O2609   2.440       .  S
Zr1813     O2610   2.434       .  S
O1814      C2611   1.282       .  A
O1815      H1832   0.990       .  S
O1815      H1847   0.990       .  S
O1816      H2625   0.990       .  S
O1817     Zr2605   2.440   1_545  S
O1817      H1837   0.990       .  S
O1817      H1846   0.990       .  S
O1818     Zr2605   2.434   1_545  S
O1818      C1819   1.285       .  A
C1819      O2606   1.282   1_545  A
C1819      C1877   1.470       .  S
O1820      H1839   0.990       .  S
O1821      H1835   0.990       .  S
O1821      H1842   0.990       .  S
O1822      C1826   1.288       .  A
O1823      C1826   1.289       .  A
O1824      H1834   0.990       .  S
C1826      C2552   1.483       .  S
H1833      O2608   0.990   1_545  S
H1841      O2604   0.990   1_545  S
Zr1849     O1850   2.441       .  S
Zr1849     O1851   2.453       .  S
Zr1849     O1852   2.457       .  S
Zr1849     O1855   2.421       .  S
Zr1849     O1857   2.381       .  S
Zr1849     O1858   2.388       .  S
Zr1849     O1859   2.408       .  S
Zr1849     O1860   2.417       .  S
O1850      H1906   0.990       .  S
O1850      H1914   0.990       .  S
O1851      C1871   1.288       .  A
O1852      C1873   1.287       .  A
O1853     Zr1863   2.437       .  S
O1853      C1872   1.287       .  A
O1854     Zr1862   2.423       .  S
O1854      C1873   1.284       .  A
O1855      C1872   1.281       .  A
O1856     Zr1864   2.402       .  S
O1856      C1871   1.278       .  A
O1857     Zr1862   2.395       .  S
O1857     Zr1864   2.386       .  S
O1858     Zr1863   2.391       .  S
O1858     Zr1864   2.375       .  S
O1858      H1893   0.966       .  S
O1859     Zr1862   2.399       .  S
O1859     Zr1879   2.383       .  S
O1859      H1896   0.964       .  S
O1860     Zr1863   2.395       .  S
O1860     Zr1879   2.400       .  S
Zr1861     O1886   2.420       .  S
Zr1861     O1880   2.421       .  S
Zr1861     O1888   2.445       .  S
Zr1861     O1876   2.444       .  S
Zr1861     O1867   2.402       .  S
Zr1861     O1868   2.401       .  S
Zr1861     O1869   2.376       .  S
Zr1861     O1870   2.382       .  S
Zr1862     O1881   2.436       .  S
Zr1862     O1874   2.435       .  S
Zr1862     O1875   2.422       .  S
Zr1862     O1868   2.391       .  S
Zr1862     O1869   2.387       .  S
Zr1863     O1865   2.435       .  S
Zr1863     O1887   2.437       .  S
Zr1863     O1889   2.452       .  S
Zr1863     O1867   2.390       .  S
Zr1863     O1870   2.389       .  S
Zr1864     O1890   2.436       .  S
Zr1864     O1891   2.431       .  S
Zr1864     O1866   2.438       .  S
Zr1864     O1867   2.401       .  S
Zr1864     O1868   2.381       .  S
O1865      H1902   0.990       .  S
O1866      H1897   0.990       .  S
O1866      H1911   0.990       .  S
O1868      H1894   0.965       .  S
O1869     Zr1879   2.372       .  S
O1870     Zr1879   2.361       .  S
O1870      H1895   0.966       .  S
C1873      C2288   1.473       .  S
O1874      H1910   0.990       .  S
O1875      C1877   1.284       .  A
O1876      C1877   1.288       .  A
O1878     Zr1879   2.439       .  S
Zr1879     O1882   2.438       .  S
O1881      H1898   0.990       .  S
O1881      H1913   0.990       .  S
O1883      H1903   0.990       .  S
O1883      H1912   0.990       .  S
O1884      C1885   1.285       .  A
O1886      H1905   0.990       .  S
O1886      H1909   0.989       .  S
O1887      H1901   0.990       .  S
O1887      H1908   0.990       .  S
O1888      C1892   1.288       .  A
O1889      C1892   1.289       .  A
O1890      H1900   0.990       .  S
O1891      H1904   0.990       .  S
Zr1915     O1916   2.441       .  S
Zr1915     O1917   2.453       .  S
Zr1915     O1918   2.457       .  S
Zr1915     O1921   2.421       .  S
Zr1915     O1923   2.381       .  S
Zr1915     O1924   2.388       .  S
Zr1915     O1925   2.409       .  S
Zr1915     O1926   2.417       .  S
O1916      H1972   0.990       .  S
O1916      H1980   0.990       .  S
O1917      C1937   1.288       .  A
O1918      C1939   1.287       .  A
O1919     Zr1929   2.437       .  S
O1919      C1938   1.287       .  A
O1920     Zr1928   2.423       .  S
O1920      C1939   1.284       .  A
O1921      C1938   1.281       .  A
O1922     Zr1930   2.402       .  S
O1922      C1937   1.278       .  A
O1923     Zr1928   2.395       .  S
O1923     Zr1930   2.386       .  S
O1924     Zr1929   2.391       .  S
O1924     Zr1930   2.375       .  S
O1924      H1959   0.966       .  S
O1925     Zr1928   2.399       .  S
O1925     Zr1945   2.383       .  S
O1925      H1962   0.964       .  S
O1926     Zr1929   2.395       .  S
O1926     Zr1945   2.400       .  S
Zr1927     O2744   2.420       .  S
Zr1927     O1946   2.421   1_655  S
Zr1927     O1954   2.445       .  S
Zr1927     O2734   2.445   1_545  S
Zr1927     O1933   2.401       .  S
Zr1927     O1934   2.402       .  S
Zr1927     O1935   2.376       .  S
Zr1927     O1936   2.382       .  S
Zr1928     O1947   2.436   1_545  S
Zr1928     O2732   2.435   1_545  S
Zr1928     O2733   2.423   1_545  S
Zr1928     O1934   2.391       .  S
Zr1928     O1935   2.387       .  S
Zr1929     O1931   2.435       .  S
Zr1929     O1953   2.437       .  S
Zr1929     O1955   2.451       .  S
Zr1929     O1933   2.391       .  S
Zr1929     O1936   2.389       .  S
Zr1930     O1956   2.436       .  S
Zr1930     O1957   2.431   1_545  S
Zr1930     O2724   2.438   1_545  S
Zr1930     O1933   2.401       .  S
Zr1930     O1934   2.381       .  S
O1931      H1968   0.990       .  S
O1932     Zr2722   2.438       .  S
O1932      H1963   0.990       .  S
O1932      H1977   0.990       .  S
O1934      H2752   0.965   1_545  S
O1935     Zr1945   2.372       .  S
O1936     Zr1945   2.361       .  S
O1936      H1961   0.966   1_655  S
C1939      C2354   1.473       .  S
O1940     Zr2720   2.435       .  S
O1940      H1976   0.990       .  S
O1941     Zr2720   2.423       .  S
O1941      C1943   1.284       .  A
O1942     Zr2719   2.445       .  S
O1942      C1943   1.288       .  A
O1944     Zr1945   2.439   1_455  S
Zr1945     O1948   2.438       .  S
O1947      H2756   0.990       .  S
O1947      H1979   0.990   1_565  S
O1949      H1969   0.990       .  S
O1949      H1978   0.990       .  S
O1950      C1951   1.285       .  A
O1952     Zr2719   2.420       .  S
O1952      H2763   0.990       .  S
O1952      H1975   0.989       .  S
O1953      H1967   0.990       .  S
O1953      H1974   0.990       .  S
O1954      C1958   1.288       .  A
O1955      C1958   1.289       .  A
O1956      H1966   0.990       .  S
O1957      H2762   0.990       .  S
H1960      O2726   0.965       .  S
H1964      O2739   0.990       .  S
H1970      O2749   0.990       .  S
H1971      O2744   0.990       .  S
Zr1981     O1982   2.426       .  S
Zr1981     O1983   2.426       .  S
Zr1981     O1984   2.438       .  S
Zr1981     O1987   2.440       .  S
Zr1981     O1989   2.379       .  S
Zr1981     O1990   2.380       .  S
Zr1981     O1991   2.405       .  S
Zr1981     O1992   2.400       .  S
O1982      H2038   0.990       .  S
O1982      H2046   0.990       .  S
O1983      C2003   1.282       .  A
O1984      C2005   1.285       .  A
O1985     Zr1995   2.417       .  S
O1985      C2796   1.283       .  A
O1986     Zr1994   2.439       .  S
O1986      C2005   1.286       .  A
O1987      C2796   1.287       .  A
O1988     Zr1996   2.429       .  S
O1988      C2003   1.284       .  A
O1989     Zr1994   2.391       .  S
O1989     Zr1996   2.367       .  S
O1990     Zr1995   2.388       .  S
O1990     Zr1996   2.375       .  S
O1990      H2025   0.966       .  S
O1991     Zr1994   2.396       .  S
O1991     Zr2011   2.402       .  S
O1991      H2028   0.966       .  S
O1992     Zr1995   2.382       .  S
O1992     Zr2011   2.384       .  S
Zr1993     O2018   2.450       .  S
Zr1993     O2012   2.449       .  S
Zr1993     O2020   2.449       .  S
Zr1993     O2008   2.425       .  S
Zr1993     O1999   2.396       .  S
Zr1993     O2000   2.413       .  S
Zr1993     O2001   2.384       .  S
Zr1993     O2002   2.383       .  S
Zr1994     O2013   2.436       .  S
Zr1994     O2006   2.434       .  S
Zr1994     O2007   2.437       .  S
Zr1994     O2000   2.397       .  S
Zr1994     O2001   2.382       .  S
Zr1995     O1997   2.435       .  S
Zr1995     O2019   2.440       .  S
Zr1995     O2021   2.415       .  S
Zr1995     O1999   2.385       .  S
Zr1995     O2002   2.382       .  S
Zr1996     O2022   2.436       .  S
Zr1996     O2023   2.437       .  S
Zr1996     O1998   2.437       .  S
Zr1996     O1999   2.391       .  S
Zr1996     O2000   2.398       .  S
O1997      H2826   0.990       .  S
O1998      H2029   0.990       .  S
O1998      H2043   0.990       .  S
O2000      H2026   0.966       .  S
O2001     Zr2011   2.377       .  S
O2002     Zr2011   2.387       .  S
O2002      H2027   0.965       .  S
C2003      C2202   1.469       .  S
C2004      O2777   1.283       .  A
C2004      O2779   1.287   1_545  A
C2004      C2267   1.469       .  S
C2005      C2071   1.478   1_556  S
O2006      H2042   0.990       .  S
O2007      C2009   1.287       .  A
O2008      C2009   1.281       .  A
C2009      C2281   1.470       .  S
O2010     Zr2011   2.436       .  S
O2010      H2039   0.990       .  S
Zr2011     O2014   2.436       .  S
Zr2011     O2015   2.445       .  S
Zr2011     O2016   2.408       .  S
O2012      C2017   1.289       .  A
O2013      H2030   0.990       .  S
O2013      H2045   0.990       .  S
O2014      H2031   0.990       .  S
O2015      H2035   0.990       .  S
O2015      H2044   0.989       .  S
O2016      C2017   1.280       .  A
C2017      C2207   1.470       .  S
O2018      H2037   0.990       .  S
O2018      H2041   0.989       .  S
O2019      H2033   0.990       .  S
O2019      H2040   0.990       .  S
O2020      C2024   1.287       .  A
O2021      C2024   1.283       .  A
O2022      H2032   0.990       .  S
O2023      H2036   0.990       .  S
H2034      O2789   0.990       .  S
Zr2047     O2048   2.426       .  S
Zr2047     O2049   2.426       .  S
Zr2047     O2050   2.438       .  S
Zr2047     O2055   2.380       .  S
Zr2047     O2056   2.380       .  S
Zr2047     O2057   2.405       .  S
Zr2047     O2058   2.400       .  S
O2048      H2104   0.990       .  S
O2048      H2112   0.990       .  S
O2049      C2069   1.282       .  A
O2050      C2071   1.285       .  A
O2051      C2070   1.283       .  A
O2052     Zr2060   2.440       .  S
O2052      C2071   1.286       .  A
O2053      C2070   1.287       .  A
O2054     Zr2062   2.429       .  S
O2054      C2069   1.284       .  A
O2055     Zr2060   2.391       .  S
O2055     Zr2062   2.367       .  S
O2056     Zr2061   2.388       .  S
O2056     Zr2062   2.374       .  S
O2056      H2091   0.966       .  S
O2057     Zr2060   2.396       .  S
O2057     Zr2077   2.402       .  S
O2057      H2094   0.966       .  S
O2058     Zr2061   2.383       .  S
O2058     Zr2077   2.384       .  S
Zr2059     O2084   2.450       .  S
Zr2059     O2078   2.449       .  S
Zr2059     O2086   2.449       .  S
Zr2059     O2074   2.425       .  S
Zr2059     O2065   2.396       .  S
Zr2059     O2066   2.414       .  S
Zr2059     O2067   2.384       .  S
Zr2059     O2068   2.383       .  S
Zr2060     O2079   2.436       .  S
Zr2060     O2072   2.434       .  S
Zr2060     O2073   2.438       .  S
Zr2060     O2066   2.397       .  S
Zr2060     O2067   2.382       .  S
Zr2061     O2085   2.440       .  S
Zr2061     O2087   2.415       .  S
Zr2061     O2065   2.384       .  S
Zr2061     O2068   2.382       .  S
Zr2062     O2088   2.436       .  S
Zr2062     O2089   2.437       .  S
Zr2062     O2064   2.437       .  S
Zr2062     O2065   2.391       .  S
Zr2062     O2066   2.398       .  S
O2063      H2100   0.990       .  S
O2064      H2095   0.990       .  S
O2064      H2109   0.990       .  S
O2066      H2092   0.966       .  S
O2067     Zr2077   2.377       .  S
O2068     Zr2077   2.387       .  S
O2068      H2093   0.965       .  S
C2069      C2334   1.469       .  S
C2070      C2135   1.469       .  S
O2072      H2108   0.990       .  S
O2073      C2075   1.287       .  A
O2074      C2075   1.281       .  A
C2075      C2149   1.470       .  S
O2076     Zr2077   2.436       .  S
O2076      H2105   0.990   1_655  S
Zr2077     O2080   2.436       .  S
Zr2077     O2082   2.407       .  S
O2078      C2083   1.289       .  A
O2079      H2096   0.990       .  S
O2079      H2111   0.990       .  S
O2080      H2097   0.990       .  S
O2081      H2101   0.990       .  S
O2081      H2110   0.989       .  S
O2082      C2083   1.280       .  A
C2083      C2339   1.471       .  S
O2084      H2103   0.990       .  S
O2084      H2107   0.989       .  S
O2085      H2099   0.990   1_655  S
O2085      H2106   0.990       .  S
O2086      C2090   1.287       .  A
O2087      C2090   1.283       .  A
O2088      H2098   0.990       .  S
O2089      H2102   0.990       .  S
Zr2113     O2114   2.426       .  S
Zr2113     O2907   2.425   1_545  S
Zr2113     O2116   2.438       .  S
Zr2113     O2119   2.440       .  S
Zr2113     O2121   2.380       .  S
Zr2113     O2122   2.380       .  S
Zr2113     O2123   2.405       .  S
Zr2113     O2124   2.400       .  S
O2114      H2170   0.990       .  S
O2114      H2178   0.990       .  S
O2115     Zr2905   2.425       .  S
O2115      C2135   1.282       .  A
O2116      C2137   1.285   1_545  A
O2117     Zr2127   2.418       .  S
O2117      C2136   1.283       .  A
O2118     Zr2126   2.439       .  S
O2118      C2137   1.286   1_545  A
O2119      C2136   1.287       .  A
O2120     Zr2920   2.429       .  S
O2120      C2135   1.284       .  A
O2121     Zr2126   2.391       .  S
O2121     Zr2128   2.367       .  S
O2122     Zr2127   2.388       .  S
O2122     Zr2128   2.374       .  S
O2122      H2157   0.966       .  S
O2123     Zr2126   2.396       .  S
O2123     Zr2143   2.402       .  S
O2123      H2160   0.966       .  S
O2124     Zr2127   2.383       .  S
O2124     Zr2143   2.384       .  S
Zr2125     O2150   2.450       .  S
Zr2125     O2144   2.449       .  S
Zr2125     O2152   2.448       .  S
Zr2125     O2140   2.425       .  S
Zr2125     O2131   2.397       .  S
Zr2125     O2132   2.413       .  S
Zr2125     O2133   2.384       .  S
Zr2125     O2134   2.383       .  S
Zr2126     O2145   2.436       .  S
Zr2126     O2930   2.434   1_545  S
Zr2126     O2139   2.438       .  S
Zr2126     O2132   2.396       .  S
Zr2126     O2133   2.382       .  S
Zr2127     O2129   2.435       .  S
Zr2127     O2151   2.440       .  S
Zr2127     O2153   2.415       .  S
Zr2127     O2131   2.385       .  S
Zr2127     O2134   2.383       .  S
Zr2128     O2946   2.436   1_545  S
Zr2128     O2947   2.436   1_545  S
Zr2128     O2922   2.437   1_545  S
Zr2128     O2912   2.429   1_545  S
Zr2128     O2131   2.391       .  S
Zr2128     O2132   2.398       .  S
O2129      H2166   0.990       .  S
O2130     Zr2920   2.437       .  S
O2130      H2161   0.990       .  S
O2130      H2175   0.990       .  S
O2132      H2158   0.966       .  S
O2133     Zr2143   2.377       .  S
O2134     Zr2143   2.387       .  S
O2134      H2159   0.965       .  S
C2136      C2333   1.469       .  S
C2137      C2995   1.478   1_554  S
O2138     Zr2918   2.434       .  S
O2138      H2174   0.990       .  S
O2139      C2141   1.287       .  A
O2140      C2141   1.281       .  A
C2141      C2347   1.471       .  S
O2142     Zr2143   2.436       .  S
O2142      H2171   0.990       .  S
Zr2143     O2146   2.437       .  S
Zr2143     O2147   2.445       .  S
Zr2143     O2148   2.407       .  S
O2144      C2149   1.289       .  A
O2145      H2162   0.990       .  S
O2145      H2177   0.990       .  S
O2146      H2163   0.990       .  S
O2147      H2167   0.990       .  S
O2147      H2176   0.989       .  S
O2148      C2149   1.280       .  A
O2150      H2169   0.990       .  S
O2150      H2173   0.990       .  S
O2151      H2165   0.990       .  S
O2151      H2172   0.990       .  S
O2152      C2156   1.287       .  A
O2153      C2156   1.283       .  A
O2154     Zr2920   2.436       .  S
O2154      H2164   0.990       .  S
O2155     Zr2920   2.436       .  S
O2155      H2168   0.990       .  S
Zr2179     O2180   2.426       .  S
Zr2179     O2181   2.426       .  S
Zr2179     O2182   2.438       .  S
Zr2179     O2185   2.439       .  S
Zr2179     O2187   2.379       .  S
Zr2179     O2188   2.380       .  S
Zr2179     O2189   2.405       .  S
Zr2179     O2190   2.400       .  S
O2180      H2236   0.990       .  S
O2180      H2244   0.990       .  S
O2181      C2993   1.282       .  A
O2182      C2203   1.286       .  A
O2183      C2202   1.283       .  A
O2184     Zr2192   2.439       .  S
O2184      C2203   1.286       .  A
O2186     Zr2986   2.429   1_545  S
O2186      C2201   1.284       .  A
O2187     Zr2192   2.391       .  S
O2187     Zr2194   2.367       .  S
O2188     Zr2193   2.388       .  S
O2188     Zr2194   2.374       .  S
O2188      H2223   0.966       .  S
O2189     Zr2192   2.396       .  S
O2189     Zr2209   2.402       .  S
O2189      H2226   0.966       .  S
O2190     Zr2193   2.383       .  S
O2190     Zr2209   2.384       .  S
Zr2191     O2216   2.450       .  S
Zr2191     O2210   2.449       .  S
Zr2191     O2218   2.448       .  S
Zr2191     O2206   2.425       .  S
Zr2191     O2197   2.396       .  S
Zr2191     O2198   2.413       .  S
Zr2191     O2199   2.384       .  S
Zr2191     O2200   2.383       .  S
Zr2192     O2211   2.436       .  S
Zr2192     O2204   2.434       .  S
Zr2192     O2205   2.438       .  S
Zr2192     O2198   2.396       .  S
Zr2192     O2199   2.382       .  S
Zr2193     O2217   2.440       .  S
Zr2193     O2219   2.416       .  S
Zr2193     O2197   2.385       .  S
Zr2193     O2200   2.382       .  S
Zr2194     O2220   2.436       .  S
Zr2194     O2221   2.437       .  S
Zr2194     O2988   2.437       .  S
Zr2194     O2978   2.429       .  S
Zr2194     O2197   2.391       .  S
Zr2194     O2198   2.398       .  S
O2195      H2232   0.990       .  S
O2196     Zr2986   2.437   1_545  S
O2196      H2227   0.990       .  S
O2196      H2241   0.990       .  S
O2198      H2224   0.966       .  S
O2199     Zr2209   2.377       .  S
O2200     Zr2209   2.386       .  S
O2200      H2225   0.965       .  S
C2201      O2973   1.282   1_545  A
C2201      C2268   1.470       .  S
C2203      C2929   1.478   1_556  S
O2204      H2240   0.990       .  S
O2205      C2207   1.287       .  A
O2206      C2207   1.281       .  A
O2208     Zr2209   2.436       .  S
O2208      H2237   0.990       .  S
Zr2209     O2212   2.436       .  S
Zr2209     O2213   2.445       .  S
Zr2209     O2214   2.407       .  S
O2210      C2215   1.289       .  A
O2211      H2228   0.990       .  S
O2211      H2243   0.990       .  S
O2212      H2229   0.990       .  S
O2213      H2233   0.990       .  S
O2213      H2242   0.989       .  S
O2214      C2215   1.280       .  A
C2215      C2273   1.470       .  S
O2216      H2235   0.990       .  S
O2216      H2239   0.989       .  S
O2217      H2231   0.990       .  S
O2217      H2238   0.990       .  S
O2218      C2222   1.287       .  A
O2219      C2222   1.283       .  A
O2220      H3022   0.990       .  S
O2221      H2234   0.990       .  S
H2230      O3012   0.990   1_545  S
Zr2245     O2246   2.426       .  S
Zr2245     O2247   2.426       .  S
Zr2245     O2248   2.439       .  S
Zr2245     O2251   2.440       .  S
Zr2245     O2253   2.379       .  S
Zr2245     O2254   2.380       .  S
Zr2245     O2255   2.405       .  S
Zr2245     O2256   2.400       .  S
O2246      H2302   0.990       .  S
O2246      H2310   0.990       .  S
O2248      C2269   1.286       .  A
O2249     Zr2259   2.418       .  S
O2249      C2268   1.283       .  A
O2250     Zr2258   2.440       .  S
O2250      C2269   1.286       .  A
O2251      C2268   1.287       .  A
O2252      C2267   1.284       .  A
O2253     Zr2258   2.391       .  S
O2253     Zr2260   2.367       .  S
O2254     Zr2259   2.388       .  S
O2254     Zr2260   2.374       .  S
O2254      H2289   0.966       .  S
O2255     Zr2258   2.396       .  S
O2255     Zr2275   2.402       .  S
O2255      H2292   0.966       .  S
O2256     Zr2259   2.383       .  S
O2256     Zr2275   2.384       .  S
Zr2257     O2282   2.450       .  S
Zr2257     O2276   2.449       .  S
Zr2257     O2284   2.449       .  S
Zr2257     O2272   2.425       .  S
Zr2257     O2263   2.396       .  S
Zr2257     O2264   2.413       .  S
Zr2257     O2265   2.384       .  S
Zr2257     O2266   2.383       .  S
Zr2258     O2277   2.436       .  S
Zr2258     O2270   2.434       .  S
Zr2258     O2271   2.438       .  S
Zr2258     O2264   2.397       .  S
Zr2258     O2265   2.382       .  S
Zr2259     O2261   2.435       .  S
Zr2259     O2283   2.440       .  S
Zr2259     O2285   2.416       .  S
Zr2259     O2263   2.385       .  S
Zr2259     O2266   2.383       .  S
Zr2260     O2286   2.436       .  S
Zr2260     O2287   2.436       .  S
Zr2260     O2263   2.391       .  S
Zr2260     O2264   2.398       .  S
O2261      H2298   0.990       .  S
O2262      H2293   0.990       .  S
O2262      H2307   0.990       .  S
O2264      H2290   0.966       .  S
O2265     Zr2275   2.377       .  S
O2266     Zr2275   2.386       .  S
O2266      H2291   0.965       .  S
O2271      C2273   1.287       .  A
O2272      C2273   1.281       .  A
O2274     Zr2275   2.436       .  S
O2274      H2303   0.990       .  S
Zr2275     O2278   2.437       .  S
Zr2275     O2279   2.445       .  S
Zr2275     O2280   2.407       .  S
O2276      C2281   1.289       .  A
O2277      H2294   0.990       .  S
O2277      H2309   0.990       .  S
O2278      H2295   0.990       .  S
O2279      H2299   0.990       .  S
O2279      H2308   0.989       .  S
O2280      C2281   1.280       .  A
O2282      H2301   0.990       .  S
O2282      H2305   0.990       .  S
O2283      H2297   0.990       .  S
O2283      H2304   0.990       .  S
O2284      C2288   1.287       .  A
O2285      C2288   1.283       .  A
O2287      H2300   0.990       .  S
Zr2311     O3104   2.426       .  S
Zr2311     O2313   2.426   1_655  S
Zr2311     O2314   2.439       .  S
Zr2311     O3109   2.440   1_545  S
Zr2311     O2319   2.379       .  S
Zr2311     O2320   2.380       .  S
Zr2311     O2321   2.405       .  S
Zr2311     O2322   2.400       .  S
O2312     Zr3103   2.426       .  S
O2312      H2368   0.990       .  S
O2312      H3168   0.990       .  S
O2314      C2335   1.286       .  A
O2315     Zr3117   2.417       .  S
O2315      C2334   1.283       .  A
O2316     Zr2324   2.440       .  S
O2316      C2335   1.286       .  A
O2317     Zr3103   2.440       .  S
O2317      C2334   1.287       .  A
O2318      C2333   1.284       .  A
O2319     Zr2324   2.391       .  S
O2319     Zr2326   2.367       .  S
O2320     Zr2325   2.388       .  S
O2320     Zr2326   2.375       .  S
O2320      H2355   0.966       .  S
O2321     Zr2324   2.396       .  S
O2321     Zr2341   2.402       .  S
O2321      H2358   0.966       .  S
O2322     Zr2325   2.382       .  S
O2322     Zr2341   2.384       .  S
Zr2323     O2348   2.450       .  S
Zr2323     O2342   2.449       .  S
Zr2323     O2350   2.449       .  S
Zr2323     O2338   2.425       .  S
Zr2323     O2329   2.396       .  S
Zr2323     O2330   2.413       .  S
Zr2323     O2331   2.384       .  S
Zr2323     O2332   2.383       .  S
Zr2324     O2343   2.436       .  S
Zr2324     O2336   2.434       .  S
Zr2324     O2337   2.438       .  S
Zr2324     O2330   2.396       .  S
Zr2324     O2331   2.382       .  S
Zr2325     O3119   2.435   1_545  S
Zr2325     O2349   2.440   1_545  S
Zr2325     O3107   2.417   1_545  S
Zr2325     O2351   2.415       .  S
Zr2325     O2329   2.385       .  S
Zr2325     O2332   2.382       .  S
Zr2326     O2353   2.437   1_655  S
Zr2326     O2329   2.391       .  S
Zr2326     O2330   2.398       .  S
O2327     Zr3117   2.435       .  S
O2327      H2364   0.990       .  S
O2328      H2359   0.990       .  S
O2328      H2373   0.990       .  S
O2330      H2356   0.966       .  S
O2331     Zr2341   2.377       .  S
O2332     Zr2341   2.387       .  S
O2332      H2357   0.965       .  S
O2337      C2339   1.287       .  A
O2338      C2339   1.281       .  A
O2340     Zr3133   2.436       .  S
O2340      H2369   0.990       .  S
Zr2341     O3132   2.436   1_545  S
Zr2341     O2344   2.436       .  S
Zr2341     O3137   2.445   1_545  S
Zr2341     O2346   2.407       .  S
O2342      C2347   1.289       .  A
O2343      H2360   0.990       .  S
O2343      H2375   0.990       .  S
O2344      H2361   0.990       .  S
O2345     Zr3133   2.445       .  S
O2345      H2365   0.990       .  S
O2345      H2374   0.989       .  S
O2346      C2347   1.280       .  A
O2348      H2367   0.990       .  S
O2348      H2371   0.989       .  S
O2349      H3155   0.990       .  S
O2349      H2370   0.990       .  S
O2350      C2354   1.287       .  A
O2351      C2354   1.283       .  A
O2352      H2362   0.990       .  S
H2363      O3141   0.990       .  S
H2376      O3104   0.990       .  S
Zr2377     O2378   2.441       .  S
Zr2377     O2379   2.453       .  S
Zr2377     O2380   2.456       .  S
Zr2377     O2383   2.421       .  S
Zr2377     O2385   2.381       .  S
Zr2377     O2386   2.388       .  S
Zr2377     O2387   2.409       .  S
Zr2377     O2388   2.417       .  S
O2378      H2434   0.990       .  S
O2378      H2442   0.990       .  S
O2379      C2399   1.288       .  A
O2380      C2401   1.287       .  A
O2381     Zr2391   2.436       .  S
O2381      C2400   1.287       .  A
O2382     Zr2390   2.423       .  S
O2382      C2401   1.284       .  A
O2383      C2400   1.281       .  A
O2384     Zr2392   2.402       .  S
O2384      C2399   1.278       .  A
O2385     Zr2390   2.395       .  S
O2385     Zr2392   2.386       .  S
O2386     Zr2391   2.390       .  S
O2386     Zr2392   2.375       .  S
O2386      H2421   0.966       .  S
O2387     Zr2390   2.399       .  S
O2387     Zr2407   2.383       .  S
O2387      H2424   0.964       .  S
O2388     Zr2391   2.395       .  S
O2388     Zr2407   2.400       .  S
Zr2389     O2414   2.421       .  S
Zr2389     O2408   2.421       .  S
Zr2389     O2416   2.445       .  S
Zr2389     O2404   2.445       .  S
Zr2389     O2395   2.401       .  S
Zr2389     O2396   2.401       .  S
Zr2389     O2397   2.376       .  S
Zr2389     O2398   2.382       .  S
Zr2390     O2409   2.437       .  S
Zr2390     O2402   2.435   1_565  S
Zr2390     O2403   2.422       .  S
Zr2390     O2396   2.391       .  S
Zr2390     O2397   2.387       .  S
Zr2391     O2393   2.435       .  S
Zr2391     O2415   2.437       .  S
Zr2391     O2417   2.451       .  S
Zr2391     O2395   2.391       .  S
Zr2391     O2398   2.389       .  S
Zr2392     O2418   2.436       .  S
Zr2392     O2419   2.431       .  S
Zr2392     O2394   2.438       .  S
Zr2392     O2395   2.401       .  S
Zr2392     O2396   2.381       .  S
O2393      H2430   0.991       .  S
O2394      H2425   0.990       .  S
O2394      H2439   0.990       .  S
O2396      H2422   0.965       .  S
O2397     Zr2407   2.371       .  S
O2398     Zr2407   2.361       .  S
O2398      H2423   0.966       .  S
C2399      C2598   1.471       .  S
C2400      C2663   1.471       .  S
C2401      C2816   1.473       .  S
O2402      H2438   0.990   1_545  S
C2405      C2677   1.470       .  S
O2406     Zr2407   2.439       .  S
O2406      H2435   0.990       .  S
Zr2407     O2410   2.438       .  S
Zr2407     O2411   2.440       .  S
Zr2407     O2412   2.434       .  S
O2408      C2413   1.282       .  A
O2409      H2426   0.990       .  S
O2409      H2441   0.990       .  S
O2410      H2427   0.990       .  S
O2411      H2431   0.990       .  S
O2411      H2440   0.990       .  S
O2412      C2413   1.285       .  A
C2413      C2603   1.470       .  S
O2414      H2433   0.990       .  S
O2414      H2437   0.989       .  S
O2415      H2429   0.990       .  S
O2415      H2436   0.990       .  S
O2416      C2420   1.288       .  A
O2417      C2420   1.289       .  A
O2418      H2428   0.990       .  S
O2419      H2432   0.990       .  S
C2420      C2486   1.483       .  S
Zr2443     O2444   2.441       .  S
Zr2443     O2445   2.453       .  S
Zr2443     O2446   2.457       .  S
Zr2443     O2449   2.421       .  S
Zr2443     O2451   2.381       .  S
Zr2443     O2452   2.388       .  S
Zr2443     O2453   2.409       .  S
Zr2443     O2454   2.417       .  S
O2444      H2500   0.990       .  S
O2444      H2508   0.990       .  S
O2445      C2465   1.288       .  A
O2446      C2467   1.287       .  A
O2447     Zr2457   2.437       .  S
O2447      C2466   1.287       .  A
O2448     Zr2456   2.423       .  S
O2448      C2467   1.284       .  A
O2449      C2466   1.281       .  A
O2450     Zr2458   2.402       .  S
O2450      C2465   1.278       .  A
O2451     Zr2456   2.395       .  S
O2451     Zr2458   2.387       .  S
O2452     Zr2457   2.390       .  S
O2452     Zr2458   2.375       .  S
O2452      H2487   0.966       .  S
O2453     Zr2456   2.399       .  S
O2453     Zr2473   2.383       .  S
O2453      H2490   0.964       .  S
O2454     Zr2457   2.395       .  S
O2454     Zr2473   2.400       .  S
Zr2455     O2480   2.421       .  S
Zr2455     O2474   2.422       .  S
Zr2455     O2482   2.444       .  S
Zr2455     O2461   2.402       .  S
Zr2455     O2462   2.401       .  S
Zr2455     O2463   2.376       .  S
Zr2455     O2464   2.383       .  S
Zr2456     O2475   2.436       .  S
Zr2456     O2462   2.391       .  S
Zr2456     O2463   2.387       .  S
Zr2457     O2459   2.435       .  S
Zr2457     O2481   2.437       .  S
Zr2457     O2483   2.452       .  S
Zr2457     O2461   2.391       .  S
Zr2457     O2464   2.389       .  S
Zr2458     O2484   2.436       .  S
Zr2458     O2485   2.432       .  S
Zr2458     O2461   2.401       .  S
Zr2458     O2462   2.381       .  S
O2459      H2496   0.991       .  S
O2460      H2491   0.990       .  S
O2462      H2488   0.965       .  S
O2463     Zr2473   2.372       .  S
O2464     Zr2473   2.361       .  S
O2464      H2489   0.966       .  S
C2465      C2730   1.471       .  S
C2466      C2531   1.471       .  S
C2467      C2882   1.473       .  S
O2468      H2504   0.990       .  S
O2469      C2471   1.284       .  A
O2470      C2471   1.288       .  A
C2471      C2545   1.470       .  S
O2472     Zr2473   2.439       .  S
O2472      H2501   0.990       .  S
Zr2473     O2476   2.438       .  S
Zr2473     O2477   2.440       .  S
Zr2473     O2478   2.434       .  S
O2474      C2479   1.282       .  A
O2475      H2492   0.990   1_655  S
O2475      H2507   0.990       .  S
O2476      H2493   0.990       .  S
O2477      H2497   0.990       .  S
O2477      H2506   0.990       .  S
O2478      C2479   1.285       .  A
C2479      C2735   1.471       .  S
O2480      H2499   0.990       .  S
O2481      H2495   0.990       .  S
O2481      H2502   0.990       .  S
O2482      C2486   1.288       .  A
O2483      C2486   1.289       .  A
O2484      H2494   0.990       .  S
Zr2509     O2510   2.441       .  S
Zr2509     O2511   2.453       .  S
Zr2509     O2512   2.457       .  S
Zr2509     O2515   2.422       .  S
Zr2509     O2517   2.381       .  S
Zr2509     O2518   2.387       .  S
Zr2509     O2519   2.409       .  S
Zr2509     O2520   2.417       .  S
O2510      H2566   0.990       .  S
O2510      H2574   0.990       .  S
O2511      C2531   1.288       .  A
O2512      C2533   1.287       .  A
O2513     Zr2523   2.436       .  S
O2513      C2532   1.287       .  A
O2514     Zr2522   2.423       .  S
O2514      C2533   1.284       .  A
O2515      C2532   1.281       .  A
O2516     Zr2524   2.401       .  S
O2516      C2531   1.278       .  A
O2517     Zr2522   2.395       .  S
O2517     Zr2524   2.386       .  S
O2518     Zr2523   2.390       .  S
O2518     Zr2524   2.375       .  S
O2518      H2553   0.966       .  S
O2519     Zr2522   2.399       .  S
O2519     Zr2539   2.383       .  S
O2519      H2556   0.964       .  S
O2520     Zr2523   2.395       .  S
O2520     Zr2539   2.400       .  S
Zr2521     O2546   2.421       .  S
Zr2521     O2548   2.444       .  S
Zr2521     O2536   2.444       .  S
Zr2521     O2527   2.402       .  S
Zr2521     O2528   2.401       .  S
Zr2521     O2529   2.376       .  S
Zr2521     O2530   2.382       .  S
Zr2522     O2541   2.436       .  S
Zr2522     O2534   2.435       .  S
Zr2522     O2535   2.422       .  S
Zr2522     O2528   2.391       .  S
Zr2522     O2529   2.387       .  S
Zr2523     O2547   2.437       .  S
Zr2523     O2549   2.451       .  S
Zr2523     O2527   2.390       .  S
Zr2523     O2530   2.389       .  S
Zr2524     O2550   2.436       .  S
Zr2524     O2551   2.431       .  S
Zr2524     O2526   2.438       .  S
Zr2524     O2527   2.400       .  S
Zr2524     O2528   2.381       .  S
O2525      H2562   0.991   1_565  S
O2526      H2557   0.990       .  S
O2526      H2571   0.990       .  S
O2528      H2554   0.965       .  S
O2529     Zr2539   2.372       .  S
O2530     Zr2539   2.361       .  S
C2532      C2729   1.471       .  S
C2533      C2948   1.473       .  S
O2534      H2570   0.990       .  S
O2535      C2537   1.284       .  A
O2536      C2537   1.288       .  A
C2537      C2743   1.470       .  S
O2538      H2567   0.990       .  S
O2540      C2545   1.282       .  A
O2541      H2558   0.990       .  S
O2541      H2573   0.990       .  S
O2542      H2559   0.990       .  S
O2543      H2563   0.990       .  S
O2543      H2572   0.990       .  S
O2544      C2545   1.285       .  A
O2546      H2565   0.990       .  S
O2546      H2569   0.989       .  S
O2547      H2561   0.990       .  S
O2547      H2568   0.990       .  S
O2548      C2552   1.288       .  A
O2549      C2552   1.289       .  A
O2550      H2560   0.990       .  S
O2551      H2564   0.990       .  S
Zr2575     O2576   2.441       .  S
Zr2575     O2577   2.453       .  S
Zr2575     O2578   2.457       .  S
Zr2575     O2581   2.422       .  S
Zr2575     O2583   2.381       .  S
Zr2575     O2584   2.388       .  S
Zr2575     O2585   2.409       .  S
Zr2575     O2586   2.417       .  S
O2576      H2632   0.990       .  S
O2576      H2640   0.990       .  S
O2577      C2597   1.288       .  A
O2578      C2599   1.287       .  A
O2579     Zr2589   2.436       .  S
O2579      C2598   1.287       .  A
O2580     Zr2588   2.422       .  S
O2580      C2599   1.283       .  A
O2581      C2598   1.281       .  A
O2582     Zr2590   2.402       .  S
O2582      C2597   1.278       .  A
O2583     Zr2588   2.395       .  S
O2583     Zr2590   2.386       .  S
O2584     Zr2589   2.391       .  S
O2584     Zr2590   2.375       .  S
O2584      H2619   0.966       .  S
O2585     Zr2588   2.399       .  S
O2585     Zr2605   2.383       .  S
O2585      H2622   0.964       .  S
O2586     Zr2589   2.395       .  S
O2586     Zr2605   2.400       .  S
Zr2587     O2612   2.421       .  S
Zr2587     O2606   2.421       .  S
Zr2587     O2614   2.444       .  S
Zr2587     O2602   2.445       .  S
Zr2587     O2593   2.401       .  S
Zr2587     O2594   2.401       .  S
Zr2587     O2595   2.376       .  S
Zr2587     O2596   2.383       .  S
Zr2588     O2607   2.436       .  S
Zr2588     O2594   2.391       .  S
Zr2588     O2595   2.387       .  S
Zr2589     O2591   2.435       .  S
Zr2589     O2613   2.437       .  S
Zr2589     O2615   2.451       .  S
Zr2589     O2593   2.391       .  S
Zr2589     O2596   2.389       .  S
Zr2590     O2616   2.436       .  S
Zr2590     O2617   2.431       .  S
Zr2590     O2592   2.438       .  S
Zr2590     O2593   2.401       .  S
Zr2590     O2594   2.381       .  S
O2591      H2628   0.990       .  S
O2592      H2637   0.990       .  S
O2594      H2620   0.965       .  S
O2595     Zr2605   2.372       .  S
O2596     Zr2605   2.361       .  S
O2596      H2621   0.966       .  S
C2597      C2664   1.471       .  S
C2599      C3014   1.473       .  S
O2600      H2636   0.990       .  S
O2601      C2603   1.284       .  A
O2604     Zr2605   2.439       .  S
Zr2605     O2608   2.438       .  S
O2607      H2624   0.990       .  S
O2607      H2639   0.990       .  S
O2609      H2629   0.990       .  S
O2609      H2638   0.990       .  S
O2610      C2611   1.285       .  A
C2611      C2669   1.470       .  S
O2612      H2631   0.990       .  S
O2613      H2627   0.990       .  S
O2613      H2634   0.990       .  S
O2614      C2618   1.288       .  A
O2615      C2618   1.289       .  A
O2616      H2626   0.990       .  S
Zr2641     O2642   2.441       .  S
Zr2641     O2643   2.453       .  S
Zr2641     O2644   2.457       .  S
Zr2641     O2647   2.421       .  S
Zr2641     O2649   2.381       .  S
Zr2641     O2650   2.388       .  S
Zr2641     O2651   2.408       .  S
Zr2641     O2652   2.417       .  S
O2642      H2698   0.990       .  S
O2642      H2706   0.990       .  S
O2643      C2663   1.288       .  A
O2644      C2665   1.287       .  A
O2645     Zr2655   2.437       .  S
O2645      C2664   1.287       .  A
O2646     Zr2654   2.423       .  S
O2646      C2665   1.284       .  A
O2647      C2664   1.281       .  A
O2648     Zr2656   2.402       .  S
O2648      C2663   1.278       .  A
O2649     Zr2654   2.395       .  S
O2649     Zr2656   2.386       .  S
O2650     Zr2655   2.391       .  S
O2650     Zr2656   2.375       .  S
O2650      H2685   0.966       .  S
O2651     Zr2654   2.399       .  S
O2651     Zr2671   2.383       .  S
O2651      H2688   0.964       .  S
O2652     Zr2655   2.395       .  S
O2652     Zr2671   2.400       .  S
Zr2653     O2678   2.420       .  S
Zr2653     O2672   2.421       .  S
Zr2653     O2680   2.445       .  S
Zr2653     O2668   2.444       .  S
Zr2653     O2659   2.402       .  S
Zr2653     O2660   2.401       .  S
Zr2653     O2661   2.376       .  S
Zr2653     O2662   2.382       .  S
Zr2654     O2673   2.436       .  S
Zr2654     O2666   2.435       .  S
Zr2654     O2667   2.422       .  S
Zr2654     O2660   2.391       .  S
Zr2654     O2661   2.387       .  S
Zr2655     O2657   2.435       .  S
Zr2655     O2679   2.437       .  S
Zr2655     O2681   2.452       .  S
Zr2655     O2659   2.390       .  S
Zr2655     O2662   2.389       .  S
Zr2656     O2682   2.436       .  S
Zr2656     O2683   2.431       .  S
Zr2656     O2658   2.438       .  S
Zr2656     O2659   2.401       .  S
Zr2656     O2660   2.381       .  S
O2657      H2694   0.990       .  S
O2658      H2689   0.990       .  S
O2658      H2703   0.990       .  S
O2660      H2686   0.965       .  S
O2661     Zr2671   2.372       .  S
O2662     Zr2671   2.361       .  S
O2662      H2687   0.966       .  S
C2665      C3080   1.473       .  S
O2666      H2702   0.990       .  S
O2667      C2669   1.284       .  A
O2668      C2669   1.288       .  A
O2670     Zr2671   2.439       .  S
Zr2671     O2674   2.438       .  S
O2673      H2690   0.990       .  S
O2673      H2705   0.990       .  S
O2675      H2695   0.990       .  S
O2675      H2704   0.990       .  S
O2676      C2677   1.285       .  A
O2678      H2697   0.990       .  S
O2678      H2701   0.989       .  S
O2679      H2693   0.990       .  S
O2679      H2700   0.990       .  S
O2680      C2684   1.288       .  A
O2681      C2684   1.289       .  A
O2682      H2692   0.990       .  S
O2683      H2696   0.990       .  S
Zr2707     O2708   2.441       .  S
Zr2707     O2709   2.453       .  S
Zr2707     O2710   2.457       .  S
Zr2707     O2713   2.421       .  S
Zr2707     O2715   2.381       .  S
Zr2707     O2716   2.388       .  S
Zr2707     O2717   2.409       .  S
Zr2707     O2718   2.417       .  S
O2708      H2764   0.990       .  S
O2708      H2772   0.990       .  S
O2709      C2729   1.288       .  A
O2710      C2731   1.287       .  A
O2711     Zr2721   2.437       .  S
O2711      C2730   1.287       .  A
O2712     Zr2720   2.423       .  S
O2712      C2731   1.284       .  A
O2713      C2730   1.281       .  A
O2714     Zr2722   2.402       .  S
O2714      C2729   1.278       .  A
O2715     Zr2720   2.395       .  S
O2715     Zr2722   2.386       .  S
O2716     Zr2721   2.391       .  S
O2716     Zr2722   2.375       .  S
O2716      H2751   0.966       .  S
O2717     Zr2720   2.399       .  S
O2717     Zr2737   2.383       .  S
O2717      H2754   0.964       .  S
O2718     Zr2721   2.395       .  S
O2718     Zr2737   2.400       .  S
Zr2719     O2738   2.421   1_655  S
Zr2719     O2746   2.445       .  S
Zr2719     O2725   2.401       .  S
Zr2719     O2726   2.402       .  S
Zr2719     O2727   2.376       .  S
Zr2719     O2728   2.382       .  S
Zr2720     O2739   2.436       .  S
Zr2720     O2726   2.391       .  S
Zr2720     O2727   2.387       .  S
Zr2721     O2723   2.435       .  S
Zr2721     O2745   2.437       .  S
Zr2721     O2747   2.451       .  S
Zr2721     O2725   2.391       .  S
Zr2721     O2728   2.389       .  S
Zr2722     O2748   2.436       .  S
Zr2722     O2749   2.431       .  S
Zr2722     O2725   2.401       .  S
Zr2722     O2726   2.381       .  S
O2723      H2760   0.990       .  S
O2724      H2755   0.990       .  S
O2724      H2769   0.990       .  S
O2727     Zr2737   2.371       .  S
O2728     Zr2737   2.361       .  S
O2728      H2753   0.966   1_655  S
C2731      C3146   1.473       .  S
O2732      H2768   0.990       .  S
O2733      C2735   1.284       .  A
O2734      C2735   1.288       .  A
O2736     Zr2737   2.439   1_455  S
Zr2737     O2740   2.438       .  S
O2739      H2771   0.990       .  S
O2741      H2761   0.990       .  S
O2741      H2770   0.990       .  S
O2742      C2743   1.285       .  A
O2744      H2767   0.989   1_545  S
O2745      H2759   0.990       .  S
O2745      H2766   0.990       .  S
O2746      C2750   1.288       .  A
O2747      C2750   1.289       .  A
O2748      H2758   0.990       .  S
Zr2773     O2774   2.426       .  S
Zr2773     O2775   2.426       .  S
Zr2773     O2776   2.438       .  S
Zr2773     O2779   2.440       .  S
Zr2773     O2781   2.379       .  S
Zr2773     O2782   2.380       .  S
Zr2773     O2783   2.405       .  S
Zr2773     O2784   2.400       .  S
O2774      H2830   0.990       .  S
O2774      H2838   0.990       .  S
O2775      C2795   1.282       .  A
O2776      C2797   1.285       .  A
O2777     Zr2787   2.417   1_545  S
O2778     Zr2786   2.439       .  S
O2778      C2797   1.286       .  A
O2780     Zr2788   2.429       .  S
O2780      C2795   1.284       .  A
O2781     Zr2786   2.391       .  S
O2781     Zr2788   2.367       .  S
O2782     Zr2787   2.388       .  S
O2782     Zr2788   2.375       .  S
O2782      H2817   0.966       .  S
O2783     Zr2786   2.396       .  S
O2783     Zr2803   2.402       .  S
O2783      H2820   0.966       .  S
O2784     Zr2787   2.382       .  S
O2784     Zr2803   2.384       .  S
Zr2785     O2810   2.450       .  S
Zr2785     O2804   2.449       .  S
Zr2785     O2812   2.449       .  S
Zr2785     O2800   2.425       .  S
Zr2785     O2791   2.396       .  S
Zr2785     O2792   2.413       .  S
Zr2785     O2793   2.384       .  S
Zr2785     O2794   2.383       .  S
Zr2786     O2805   2.436       .  S
Zr2786     O2798   2.434       .  S
Zr2786     O2799   2.437       .  S
Zr2786     O2792   2.397       .  S
Zr2786     O2793   2.382       .  S
Zr2787     O2789   2.435   1_565  S
Zr2787     O2811   2.440       .  S
Zr2787     O2813   2.415       .  S
Zr2787     O2791   2.385       .  S
Zr2787     O2794   2.382       .  S
Zr2788     O2814   2.436       .  S
Zr2788     O2815   2.437       .  S
Zr2788     O2790   2.437       .  S
Zr2788     O2791   2.391       .  S
Zr2788     O2792   2.398       .  S
O2790      H2821   0.990       .  S
O2790      H2835   0.990       .  S
O2792      H2818   0.966       .  S
O2793     Zr2803   2.377       .  S
O2794     Zr2803   2.387       .  S
O2794      H2819   0.965       .  S
C2795      C2994   1.469       .  S
C2796      C3059   1.469       .  S
C2797      C2863   1.478   1_556  S
O2798      H2834   0.990       .  S
O2799      C2801   1.287       .  A
O2800      C2801   1.281       .  A
C2801      C3073   1.470       .  S
O2802     Zr2803   2.436       .  S
O2802      H2831   0.990       .  S
Zr2803     O2806   2.436       .  S
Zr2803     O2807   2.445       .  S
Zr2803     O2808   2.408       .  S
O2804      C2809   1.289       .  A
O2805      H2822   0.990       .  S
O2805      H2837   0.990       .  S
O2806      H2823   0.990       .  S
O2807      H2827   0.990       .  S
O2807      H2836   0.989       .  S
O2808      C2809   1.280       .  A
C2809      C2999   1.470       .  S
O2810      H2829   0.990       .  S
O2810      H2833   0.989       .  S
O2811      H2825   0.990       .  S
O2811      H2832   0.990       .  S
O2812      C2816   1.287       .  A
O2813      C2816   1.283       .  A
O2814      H2824   0.990       .  S
O2815      H2828   0.990       .  S
Zr2839     O2840   2.426       .  S
Zr2839     O2841   2.426       .  S
Zr2839     O2842   2.438       .  S
Zr2839     O2847   2.380       .  S
Zr2839     O2848   2.380       .  S
Zr2839     O2849   2.405       .  S
Zr2839     O2850   2.400       .  S
O2840      H2896   0.990       .  S
O2840      H2904   0.990       .  S
O2841      C2861   1.282       .  A
O2842      C2863   1.285       .  A
O2843      C2862   1.283       .  A
O2844     Zr2852   2.440       .  S
O2844      C2863   1.286       .  A
O2845      C2862   1.287       .  A
O2846     Zr2854   2.429       .  S
O2846      C2861   1.284       .  A
O2847     Zr2852   2.391       .  S
O2847     Zr2854   2.367       .  S
O2848     Zr2853   2.388       .  S
O2848     Zr2854   2.374       .  S
O2848      H2883   0.966       .  S
O2849     Zr2852   2.396       .  S
O2849     Zr2869   2.402       .  S
O2849      H2886   0.966       .  S
O2850     Zr2853   2.383       .  S
O2850     Zr2869   2.384       .  S
Zr2851     O2876   2.450       .  S
Zr2851     O2870   2.449       .  S
Zr2851     O2878   2.449       .  S
Zr2851     O2866   2.425       .  S
Zr2851     O2857   2.396       .  S
Zr2851     O2858   2.414       .  S
Zr2851     O2859   2.384       .  S
Zr2851     O2860   2.383       .  S
Zr2852     O2871   2.436       .  S
Zr2852     O2864   2.434       .  S
Zr2852     O2865   2.438       .  S
Zr2852     O2858   2.397       .  S
Zr2852     O2859   2.382       .  S
Zr2853     O2877   2.440       .  S
Zr2853     O2879   2.415       .  S
Zr2853     O2857   2.384       .  S
Zr2853     O2860   2.382       .  S
Zr2854     O2880   2.436       .  S
Zr2854     O2881   2.437       .  S
Zr2854     O2856   2.437       .  S
Zr2854     O2857   2.391       .  S
Zr2854     O2858   2.398       .  S
O2855      H2892   0.990       .  S
O2856      H2887   0.990       .  S
O2856      H2901   0.990       .  S
O2858      H2884   0.966       .  S
O2859     Zr2869   2.377       .  S
O2860     Zr2869   2.387       .  S
O2860      H2885   0.965       .  S
C2861      C3126   1.469       .  S
C2862      C2927   1.469       .  S
O2864      H2900   0.990       .  S
O2865      C2867   1.287       .  A
O2866      C2867   1.281       .  A
C2867      C2941   1.470       .  S
O2868     Zr2869   2.436       .  S
O2868      H2897   0.990   1_655  S
Zr2869     O2872   2.436       .  S
Zr2869     O2874   2.407       .  S
O2870      C2875   1.289       .  A
O2871      H2888   0.990       .  S
O2871      H2903   0.990       .  S
O2872      H2889   0.990       .  S
O2873      H2893   0.990       .  S
O2873      H2902   0.989       .  S
O2874      C2875   1.280       .  A
C2875      C3131   1.471       .  S
O2876      H2895   0.990       .  S
O2876      H2899   0.989       .  S
O2877      H2891   0.990   1_655  S
O2877      H2898   0.990       .  S
O2878      C2882   1.287       .  A
O2879      C2882   1.283       .  A
O2880      H2890   0.990       .  S
O2881      H2894   0.990       .  S
Zr2905     O2906   2.426       .  S
Zr2905     O2908   2.438       .  S
Zr2905     O2911   2.440       .  S
Zr2905     O2913   2.380       .  S
Zr2905     O2914   2.380       .  S
Zr2905     O2915   2.405       .  S
Zr2905     O2916   2.400       .  S
O2906      H2962   0.990       .  S
O2906      H2970   0.990       .  S
O2907      C2927   1.282       .  A
O2908      C2929   1.285       .  A
O2909     Zr2919   2.418       .  S
O2909      C2928   1.283       .  A
O2910     Zr2918   2.439       .  S
O2910      C2929   1.286       .  A
O2911      C2928   1.287       .  A
O2912      C2927   1.284       .  A
O2913     Zr2918   2.391       .  S
O2913     Zr2920   2.367       .  S
O2914     Zr2919   2.388       .  S
O2914     Zr2920   2.374       .  S
O2914      H2949   0.966       .  S
O2915     Zr2918   2.396       .  S
O2915     Zr2935   2.402       .  S
O2915      H2952   0.966       .  S
O2916     Zr2919   2.383       .  S
O2916     Zr2935   2.384       .  S
Zr2917     O2942   2.450       .  S
Zr2917     O2936   2.449       .  S
Zr2917     O2944   2.448       .  S
Zr2917     O2932   2.425       .  S
Zr2917     O2923   2.397       .  S
Zr2917     O2924   2.413       .  S
Zr2917     O2925   2.384       .  S
Zr2917     O2926   2.383       .  S
Zr2918     O2937   2.436       .  S
Zr2918     O2931   2.438       .  S
Zr2918     O2924   2.396       .  S
Zr2918     O2925   2.382       .  S
Zr2919     O2921   2.435       .  S
Zr2919     O2943   2.440       .  S
Zr2919     O2945   2.416       .  S
Zr2919     O2923   2.385       .  S
Zr2919     O2926   2.383       .  S
Zr2920     O2923   2.391       .  S
Zr2920     O2924   2.398       .  S
O2921      H2958   0.990       .  S
O2922      H2953   0.990       .  S
O2922      H2967   0.990       .  S
O2924      H2950   0.966       .  S
O2925     Zr2935   2.377       .  S
O2926     Zr2935   2.387       .  S
O2926      H2951   0.965       .  S
C2928      C3125   1.469       .  S
O2930      H2966   0.990       .  S
O2931      C2933   1.287       .  A
O2932      C2933   1.281       .  A
C2933      C3139   1.471       .  S
O2934     Zr2935   2.436       .  S
O2934      H2963   0.990       .  S
Zr2935     O2938   2.437       .  S
Zr2935     O2939   2.445       .  S
Zr2935     O2940   2.407       .  S
O2936      C2941   1.289       .  A
O2937      H2954   0.990       .  S
O2937      H2969   0.990       .  S
O2938      H2955   0.990       .  S
O2939      H2959   0.990       .  S
O2939      H2968   0.989       .  S
O2940      C2941   1.280       .  A
O2942      H2961   0.990       .  S
O2942      H2965   0.990       .  S
O2943      H2957   0.990       .  S
O2943      H2964   0.990       .  S
O2944      C2948   1.287       .  A
O2945      C2948   1.283       .  A
O2946      H2956   0.990       .  S
O2947      H2960   0.990   1_565  S
Zr2971     O2972   2.426       .  S
Zr2971     O2973   2.426       .  S
Zr2971     O2974   2.438       .  S
Zr2971     O2977   2.439       .  S
Zr2971     O2979   2.379       .  S
Zr2971     O2980   2.380       .  S
Zr2971     O2981   2.405       .  S
Zr2971     O2982   2.400       .  S
O2972      H3028   0.990       .  S
O2972      H3036   0.990       .  S
O2974      C2995   1.286       .  A
O2975      C2994   1.283       .  A
O2976     Zr2984   2.439       .  S
O2976      C2995   1.286       .  A
O2978      C2993   1.284       .  A
O2979     Zr2984   2.391       .  S
O2979     Zr2986   2.367       .  S
O2980     Zr2985   2.388       .  S
O2980     Zr2986   2.374       .  S
O2980      H3015   0.966       .  S
O2981     Zr2984   2.396       .  S
O2981     Zr3001   2.402       .  S
O2981      H3018   0.966       .  S
O2982     Zr2985   2.383       .  S
O2982     Zr3001   2.384       .  S
Zr2983     O3008   2.450       .  S
Zr2983     O3002   2.449       .  S
Zr2983     O3010   2.448       .  S
Zr2983     O2998   2.425       .  S
Zr2983     O2989   2.396       .  S
Zr2983     O2990   2.413       .  S
Zr2983     O2991   2.384       .  S
Zr2983     O2992   2.383       .  S
Zr2984     O3003   2.436       .  S
Zr2984     O2996   2.434       .  S
Zr2984     O2997   2.438       .  S
Zr2984     O2990   2.396       .  S
Zr2984     O2991   2.382       .  S
Zr2985     O3009   2.440       .  S
Zr2985     O3011   2.416       .  S
Zr2985     O2989   2.385       .  S
Zr2985     O2992   2.382       .  S
Zr2986     O3012   2.436       .  S
Zr2986     O3013   2.437       .  S
Zr2986     O2989   2.391       .  S
Zr2986     O2990   2.398       .  S
O2987      H3024   0.990       .  S
O2988      H3019   0.990       .  S
O2988      H3033   0.990       .  S
O2990      H3016   0.966       .  S
O2991     Zr3001   2.377       .  S
O2992     Zr3001   2.386       .  S
O2992      H3017   0.965       .  S
C2993      C3060   1.470       .  S
O2996      H3032   0.990       .  S
O2997      C2999   1.287       .  A
O2998      C2999   1.281       .  A
O3000     Zr3001   2.436       .  S
O3000      H3029   0.990       .  S
Zr3001     O3004   2.436       .  S
Zr3001     O3005   2.445       .  S
Zr3001     O3006   2.407       .  S
O3002      C3007   1.289       .  A
O3003      H3020   0.990       .  S
O3003      H3035   0.990       .  S
O3004      H3021   0.990       .  S
O3005      H3025   0.990       .  S
O3005      H3034   0.989       .  S
O3006      C3007   1.280       .  A
C3007      C3065   1.470       .  S
O3008      H3027   0.990       .  S
O3008      H3031   0.989       .  S
O3009      H3023   0.990       .  S
O3009      H3030   0.990       .  S
O3010      C3014   1.287       .  A
O3011      C3014   1.283       .  A
O3013      H3026   0.990       .  S
Zr3037     O3038   2.426       .  S
Zr3037     O3039   2.426       .  S
Zr3037     O3040   2.439       .  S
Zr3037     O3043   2.440       .  S
Zr3037     O3045   2.379       .  S
Zr3037     O3046   2.380       .  S
Zr3037     O3047   2.405       .  S
Zr3037     O3048   2.400       .  S
O3038      H3094   0.990       .  S
O3038      H3102   0.990       .  S
O3040      C3061   1.286       .  A
O3041     Zr3051   2.418       .  S
O3041      C3060   1.283       .  A
O3042     Zr3050   2.440       .  S
O3042      C3061   1.286       .  A
O3043      C3060   1.287       .  A
O3044      C3059   1.284       .  A
O3045     Zr3050   2.391       .  S
O3045     Zr3052   2.367       .  S
O3046     Zr3051   2.388       .  S
O3046     Zr3052   2.374       .  S
O3046      H3081   0.966       .  S
O3047     Zr3050   2.396       .  S
O3047     Zr3067   2.402       .  S
O3047      H3084   0.966       .  S
O3048     Zr3051   2.383       .  S
O3048     Zr3067   2.384       .  S
Zr3049     O3074   2.450       .  S
Zr3049     O3068   2.449       .  S
Zr3049     O3076   2.449       .  S
Zr3049     O3064   2.425       .  S
Zr3049     O3055   2.396       .  S
Zr3049     O3056   2.413       .  S
Zr3049     O3057   2.384       .  S
Zr3049     O3058   2.383       .  S
Zr3050     O3069   2.436       .  S
Zr3050     O3062   2.434       .  S
Zr3050     O3063   2.438       .  S
Zr3050     O3056   2.397       .  S
Zr3050     O3057   2.382       .  S
Zr3051     O3053   2.435       .  S
Zr3051     O3075   2.440       .  S
Zr3051     O3077   2.416       .  S
Zr3051     O3055   2.385       .  S
Zr3051     O3058   2.383       .  S
Zr3052     O3078   2.436       .  S
Zr3052     O3079   2.436       .  S
Zr3052     O3055   2.391       .  S
Zr3052     O3056   2.398       .  S
O3053      H3090   0.990       .  S
O3054      H3085   0.990       .  S
O3054      H3099   0.990       .  S
O3056      H3082   0.966       .  S
O3057     Zr3067   2.377       .  S
O3058     Zr3067   2.386       .  S
O3058      H3083   0.965       .  S
O3063      C3065   1.287       .  A
O3064      C3065   1.281       .  A
O3066     Zr3067   2.436       .  S
O3066      H3095   0.990       .  S
Zr3067     O3070   2.437       .  S
Zr3067     O3071   2.445       .  S
Zr3067     O3072   2.407       .  S
O3068      C3073   1.289       .  A
O3069      H3086   0.990       .  S
O3069      H3101   0.990       .  S
O3070      H3087   0.990       .  S
O3071      H3091   0.990       .  S
O3071      H3100   0.989       .  S
O3072      C3073   1.280       .  A
O3074      H3093   0.990       .  S
O3074      H3097   0.990       .  S
O3075      H3089   0.990       .  S
O3075      H3096   0.990       .  S
O3076      C3080   1.287       .  A
O3077      C3080   1.283       .  A
O3079      H3092   0.990       .  S
Zr3103     O3105   2.426   1_655  S
Zr3103     O3106   2.439       .  S
Zr3103     O3111   2.379       .  S
Zr3103     O3112   2.380       .  S
Zr3103     O3113   2.405       .  S
Zr3103     O3114   2.400       .  S
O3104      H3160   0.990       .  S
O3106      C3127   1.286       .  A
O3107      C3126   1.283       .  A
O3108     Zr3116   2.440       .  S
O3108      C3127   1.286       .  A
O3109      C3126   1.287       .  A
O3110      C3125   1.284       .  A
O3111     Zr3116   2.391       .  S
O3111     Zr3118   2.367       .  S
O3112     Zr3117   2.388       .  S
O3112     Zr3118   2.375       .  S
O3112      H3147   0.966       .  S
O3113     Zr3116   2.396       .  S
O3113     Zr3133   2.402       .  S
O3113      H3150   0.966       .  S
O3114     Zr3117   2.382       .  S
O3114     Zr3133   2.384       .  S
Zr3115     O3140   2.450       .  S
Zr3115     O3134   2.449       .  S
Zr3115     O3142   2.449       .  S
Zr3115     O3130   2.425       .  S
Zr3115     O3121   2.396       .  S
Zr3115     O3122   2.413       .  S
Zr3115     O3123   2.384       .  S
Zr3115     O3124   2.383       .  S
Zr3116     O3135   2.436       .  S
Zr3116     O3128   2.434       .  S
Zr3116     O3129   2.438       .  S
Zr3116     O3122   2.396       .  S
Zr3116     O3123   2.382       .  S
Zr3117     O3141   2.440       .  S
Zr3117     O3143   2.415       .  S
Zr3117     O3121   2.385       .  S
Zr3117     O3124   2.382       .  S
Zr3118     O3145   2.437   1_655  S
Zr3118     O3121   2.391       .  S
Zr3118     O3122   2.398       .  S
O3119      H3156   0.990       .  S
O3120      H3151   0.990       .  S
O3120      H3165   0.990       .  S
O3122      H3148   0.966       .  S
O3123     Zr3133   2.377       .  S
O3124     Zr3133   2.387       .  S
O3124      H3149   0.965       .  S
O3129      C3131   1.287       .  A
O3130      C3131   1.281       .  A
O3132      H3161   0.990       .  S
Zr3133     O3136   2.436       .  S
Zr3133     O3138   2.407       .  S
O3134      C3139   1.289       .  A
O3135      H3152   0.990       .  S
O3135      H3167   0.990       .  S
O3136      H3153   0.990       .  S
O3137      H3157   0.990       .  S
O3137      H3166   0.989       .  S
O3138      C3139   1.280       .  A
O3140      H3159   0.990       .  S
O3140      H3163   0.989       .  S
O3141      H3162   0.990       .  S
O3142      C3146   1.287       .  A
O3143      C3146   1.283       .  A
O3144      H3154   0.990       .  S
