geometry optimzed in LAMMPS
_audit_creation_date              2020-12-01 
_audit_creation_method            'lammps2cif' 
_symmetry_space_group_name_H-M    'P1' 
_symmetry_Int_Tables_number       1 
_symmetry_cell_setting            triclinic 
loop_ 
_symmetry_equiv_pos_as_xyz 
  x,y,z 
_cell_length_a                    53.51904224 
_cell_length_b                    53.45627182747352 
_cell_length_c                    59.14328052372587 
_cell_angle_alpha                 90.0852637991026 
_cell_angle_beta                  90.00389902600483 
_cell_angle_gamma                 89.89384623162294 
loop_ 
_atom_site_label 
_atom_site_type_symbol 
_atom_site_fract_x 
_atom_site_fract_y 
_atom_site_fract_z 
_atom_site_charge 
Fe1        Fe  0.38321527  0.69207923  0.12677253     1.65800
Fe2        Fe  0.43019027  0.66727831  0.15869190     1.73200
Fe3        Fe  0.43931120  0.72283899  0.13126197     1.54400
O4          O  0.42951072  0.72070754  0.09723181    -0.81100
O5          O  0.44580526  0.69184352  0.18127740    -0.79400
O6          O  0.39566293  0.69641620  0.09403412    -0.83600
O7          O  0.37657370  0.72995799  0.12915142    -0.78500
O8          O  0.46977195  0.70044115  0.12412622    -0.80200
O9          O  0.39795998  0.66765313  0.17783254    -0.83000
C10         C  0.38876675  0.74952527  0.13393953     0.97800
C11         C  0.41327418  0.70918132  0.08542249     1.05200
O12         O  0.41760878  0.69408229  0.13890647    -1.12000
O13         O  0.41679779  0.63834016  0.13932113    -0.74400
O14         O  0.38342207  0.65368946  0.12205301    -0.77900
O15         O  0.41208716  0.74941580  0.13744790    -0.78600
C16         C  0.39736549  0.63550634  0.12745168     0.96700
O17         O  0.36796310  0.68760693  0.15867010    -0.76500
O18         O  0.46356961  0.66402635  0.14164245    -0.81700
C19         C  0.45358122  0.71414672  0.18153875     0.99300
C20         C  0.47665625  0.67856710  0.12958377     1.05200
O21         O  0.45190782  0.72821307  0.16426736    -0.77400
C22         C  0.37584678  0.67612736  0.17609847     1.03500
Fe23       Fe  0.38648355  0.70094959  0.87008316     1.65800
Fe24       Fe  0.43405545  0.67204749  0.84231632     1.73200
Fe25       Fe  0.44565510  0.72621693  0.87137503     1.54400
O26         O  0.42036127  0.75582234  0.86666047    -0.81100
O27         O  0.46361098  0.66405149  0.86316876    -0.79400
O28         O  0.38302425  0.73812021  0.86326114    -0.83600
O29         O  0.39546378  0.70778454  0.90363297    -0.78500
O30         O  0.45953584  0.73262665  0.83891477    -0.80200
O31         O  0.41395860  0.64464208  0.85873128    -0.83000
C32         C  0.41468741  0.71479647  0.91457019     0.97800
C33         C  0.39691325  0.75717415  0.86332428     1.05200
O34         O  0.42206659  0.69979233  0.86130103    -1.12000
O35         O  0.40597765  0.67716102  0.81904132    -0.74400
O36         O  0.37395306  0.69432349  0.83724429    -0.77900
O37         O  0.43467063  0.72200572  0.90486863    -0.78600
C38         C  0.38370087  0.68538519  0.81935829     0.96700
O39         O  0.38404075  0.66361858  0.87820741    -0.76500
O40         O  0.45613407  0.69505550  0.82311725    -0.81700
C41         C  0.47913529  0.67782327  0.87351446     0.99300
C42         C  0.46434861  0.71723123  0.82303924     1.05200
O43         O  0.47477560  0.70086664  0.87731325    -0.77400
C44         C  0.39535970  0.64403100  0.87190219     1.03500
Fe45       Fe  0.70146778  0.61766453  0.12479728     1.65800
Fe46       Fe  0.67673849  0.56933283  0.15388131     1.73200
Fe47       Fe  0.73234704  0.56146156  0.12637140     1.54400
O48         O  0.72930944  0.57314157  0.09278835    -0.81100
O49         O  0.70135510  0.55459260  0.17677278    -0.79400
O50         O  0.70365120  0.60623398  0.09172373    -0.83600
O51         O  0.73927885  0.62379607  0.12543574    -0.78500
O52         O  0.71023062  0.53102036  0.11790234    -0.80200
O53         O  0.67542921  0.60167200  0.17358914    -0.83000
C54         C  0.75914671  0.61185690  0.12947087     0.97800
C55         C  0.71641008  0.58932983  0.08193908     1.05200
O56         O  0.70370758  0.58271604  0.13511880    -1.12000
O57         O  0.64902179  0.58174150  0.13286698    -0.74400
O58         O  0.66283586  0.61866885  0.12220779    -0.77900
O59         O  0.75913405  0.58852559  0.13327407    -0.78600
C60         C  0.64518577  0.60315732  0.12474958     0.96700
O61         O  0.69941454  0.63088604  0.15745699    -0.76500
O62         O  0.67450191  0.53582540  0.13668491    -0.81700
C63         C  0.72367906  0.54671213  0.17672253     0.99300
C64         C  0.68856309  0.52362705  0.12340815     1.05200
O65         O  0.73753125  0.54768915  0.15918064    -0.77400
C66         C  0.68626732  0.62288467  0.17376523     1.03500
Fe67       Fe  0.70205062  0.60703497  0.86700039     1.65800
Fe68       Fe  0.67892047  0.55588946  0.84125800     1.73200
Fe69       Fe  0.73313929  0.55145490  0.86951673     1.54400
O70         O  0.75938449  0.58012828  0.86594129    -0.81100
O71         O  0.67156309  0.53090852  0.86649375    -0.79400
O72         O  0.73797107  0.61440526  0.85730694    -0.83600
O73         O  0.71287933  0.60079146  0.90032391    -0.78500
O74         O  0.74144792  0.54073786  0.83672093    -0.80200
O75         O  0.64977765  0.57824973  0.85268520    -0.83000
C76         C  0.72031727  0.58192548  0.91164881     0.97800
C77         C  0.75842449  0.60287931  0.85967292     1.05200
O78         O  0.70476481  0.57163326  0.85947184    -1.12000
O79         O  0.68589888  0.58032714  0.81564007    -0.74400
O80         O  0.69115907  0.61631275  0.83397580    -0.77900
O81         O  0.72669274  0.56129016  0.90261037    -0.78600
C82         C  0.68808480  0.60389326  0.81566712     0.96700
O83         O  0.66560991  0.60435148  0.87792063    -0.76500
O84         O  0.70308007  0.53078552  0.82571569    -0.81700
C85         C  0.68712712  0.51579766  0.87512505     0.99300
C86         C  0.72656379  0.53041896  0.82291088     1.05200
O87         O  0.71067116  0.51974482  0.87469915    -0.77400
C88         C  0.64712346  0.59478300  0.86787658     1.03500
Fe89       Fe  0.62545070  0.29576010  0.11941156     1.65800
Fe90       Fe  0.57996355  0.32303336  0.15125589     1.73200
Fe91       Fe  0.56817418  0.26749387  0.12434797     1.54400
O92         O  0.57783841  0.26856323  0.09018085    -0.81100
O93         O  0.56337440  0.29958231  0.17415529    -0.79400
O94         O  0.61233712  0.29185481  0.08666792    -0.83600
O95         O  0.63015267  0.25784239  0.12226951    -0.78500
O96         O  0.53859552  0.29130481  0.11722730    -0.80200
O97         O  0.61210721  0.32107875  0.17053263    -0.83000
C98         C  0.61757285  0.23866588  0.12744642     0.97800
C99         C  0.59443362  0.27928149  0.07816399     1.05200
O100        O  0.59112705  0.29543688  0.13163635    -1.12000
O101        O  0.59469117  0.35095898  0.13156833    -0.74400
O102        O  0.62748076  0.33410108  0.11464038    -0.77900
O103        O  0.59422228  0.23967721  0.13064256    -0.78600
C104        C  0.61445391  0.35296936  0.12000270     0.96700
O105        O  0.64094790  0.29923070  0.15139929    -0.76500
O106        O  0.54675424  0.32769151  0.13415513    -0.81700
C107        C  0.55503928  0.27750745  0.17475360     0.99300
C108        C  0.53291712  0.31375047  0.12215874     1.05200
O109        O  0.55594359  0.26318288  0.15756575    -0.77400
C110        C  0.63337155  0.31054680  0.16904119     1.03500
Fe111      Fe  0.62445252  0.29380016  0.86684466     1.65800
Fe112      Fe  0.58030090  0.31836314  0.83196314     1.73200
Fe113      Fe  0.56780806  0.26398310  0.86011383     1.54400
O114        O  0.59537068  0.23666731  0.85638175    -0.81100
O115        O  0.54483130  0.32124281  0.84464503    -0.79400
O116        O  0.63116645  0.25602815  0.86394221    -0.83600
O117        O  0.61014947  0.28934084  0.89881322    -0.78500
O118        O  0.55776066  0.25825981  0.82607679    -0.80200
O119        O  0.59050970  0.34697374  0.85306680    -0.83000
C120        C  0.59160028  0.27771419  0.90706545     0.97800
C121        C  0.61887181  0.23644664  0.85940010     1.05200
O122        O  0.59077274  0.29196797  0.85303763    -1.12000
O123        O  0.61425084  0.31888088  0.81569891    -0.74400
O124        O  0.64229310  0.29800296  0.83623927    -0.77900
O125        O  0.57511460  0.26697539  0.89484675    -0.78600
C126        C  0.63578246  0.30949507  0.81850141     0.96700
O127        O  0.62344288  0.33227269  0.87152044    -0.76500
O128        O  0.56841209  0.29320096  0.80840137    -0.81700
C129        C  0.53016115  0.30791508  0.85621992     0.99300
C130        C  0.55909825  0.27153510  0.80815761     1.05200
O131        O  0.53663612  0.28701500  0.86464420    -0.77400
C132        C  0.60931623  0.35022181  0.86560009     1.03500
Fe133      Fe  0.30302113  0.37268703  0.11910527     1.65800
Fe134      Fe  0.32927778  0.41840535  0.15153768     1.73200
Fe135      Fe  0.27614470  0.43120081  0.12158526     1.54400
O136        O  0.27942411  0.42088442  0.08788842    -0.81100
O137        O  0.30484573  0.43607507  0.17286297    -0.79400
O138        O  0.30049944  0.38474369  0.08603117    -0.83600
O139        O  0.26480228  0.36877728  0.12064532    -0.78500
O140        O  0.30116977  0.46004547  0.11534676    -0.80200
O141        O  0.32560397  0.38700461  0.17117317    -0.83000
C142        C  0.24581882  0.38250522  0.12373057     0.97800
C143        C  0.28981582  0.40335966  0.07672679     1.05200
O144        O  0.30275781  0.40744409  0.13072048    -1.12000
O145        O  0.35784619  0.40271440  0.13335746    -0.74400
O146        O  0.34157519  0.37035184  0.11532709    -0.77900
O147        O  0.24731903  0.40596944  0.12645877    -0.78600
C148        C  0.36023674  0.38331692  0.12131269     0.96700
O149        O  0.30512938  0.35777183  0.15141321    -0.76500
O150        O  0.33585446  0.45094182  0.13439515    -0.81700
C151        C  0.28307509  0.44534371  0.17201966     0.99300
C152        C  0.32338417  0.46502603  0.12146013     1.05200
O153        O  0.26978675  0.44427494  0.15425777    -0.77400
C154        C  0.31532293  0.36573484  0.16944460     1.03500
Fe155      Fe  0.30350485  0.37969889  0.86059134     1.65800
Fe156      Fe  0.32975728  0.42887512  0.83335798     1.73200
Fe157      Fe  0.27734100  0.43772931  0.86461409     1.54400
O158        O  0.24886505  0.41131366  0.86243590    -0.81100
O159        O  0.33922826  0.45597869  0.85648034    -0.79400
O160        O  0.26655682  0.37537169  0.85253514    -0.83600
O161        O  0.29512808  0.38679434  0.89431489    -0.78500
O162        O  0.26776692  0.44991478  0.83263668    -0.80200
O163        O  0.35821702  0.40580619  0.84573435    -0.83000
C164        C  0.29008048  0.40605291  0.90614385     0.97800
C165        C  0.24738398  0.38850326  0.85660522     1.05200
O166        O  0.30355735  0.41535089  0.85291954    -1.12000
O167        O  0.32217456  0.40316065  0.80866967    -0.74400
O168        O  0.31212430  0.36865719  0.82778079    -0.77900
O169        O  0.28491678  0.42718540  0.89742196    -0.78600
C170        C  0.31784978  0.37984889  0.80955471     0.96700
O171        O  0.34059365  0.37910693  0.86945204    -0.76500
O172        O  0.30550305  0.45348924  0.81722441    -0.81700
C173        C  0.32485846  0.47186720  0.86579142     0.99300
C174        C  0.28210650  0.45781182  0.81714449     1.05200
O175        O  0.30160720  0.46795258  0.86841468    -0.77400
C176        C  0.35968261  0.38766798  0.85958314     1.03500
Fe177      Fe  0.70252141  0.37359853  0.36818457     1.65800
Fe178      Fe  0.67427791  0.41976916  0.33747406     1.73200
Fe179      Fe  0.73003782  0.43148823  0.36367751     1.54400
O180        O  0.72714299  0.42353436  0.39782418    -0.81100
O181        O  0.69759296  0.43770940  0.31491257    -0.79400
O182        O  0.70932551  0.38581018  0.40071581    -0.83600
O183        O  0.73993983  0.36810903  0.36269177    -0.78500
O184        O  0.70656262  0.46197991  0.36895776    -0.80200
O185        O  0.67618248  0.38841871  0.31724438    -0.83000
C186        C  0.75924501  0.38145284  0.36031340     0.97800
C187        C  0.71865227  0.40543960  0.40945095     1.05200
O188        O  0.70232785  0.40824125  0.35643643    -1.12000
O189        O  0.64686704  0.40351483  0.35688388    -0.74400
O190        O  0.66499401  0.37289523  0.37595871    -0.77900
O191        O  0.75829246  0.40512491  0.35970225    -0.78600
C192        C  0.64572099  0.38508364  0.37019893     0.96700
O193        O  0.69570935  0.35821687  0.33655180    -0.76500
O194        O  0.66888877  0.45223951  0.35571088    -0.81700
C195        C  0.72034170  0.44413553  0.31365524     0.99300
C196        C  0.68369771  0.46712488  0.36560508     1.05200
O197        O  0.73534030  0.44164552  0.33018422    -0.77400
C198        C  0.68485090  0.36635395  0.31890739     1.03500
Fe199      Fe  0.70561358  0.37845241  0.62305082     1.65800
Fe200      Fe  0.67493190  0.42614625  0.64905358     1.73200
Fe201      Fe  0.73056322  0.43754530  0.62333145     1.54400
O202        O  0.75985044  0.41227320  0.62746436    -0.81100
O203        O  0.66777089  0.45426021  0.62643409    -0.79400
O204        O  0.74267628  0.37477955  0.63104392    -0.83600
O205        O  0.71350446  0.38798254  0.58984711    -0.78500
O206        O  0.73590996  0.44915878  0.65655239    -0.80200
O207        O  0.64840282  0.40466299  0.63275231    -0.83000
C208        C  0.72012237  0.40780438  0.57954582     0.97800
C209        C  0.76156730  0.38889142  0.63066901     1.05200
O210        O  0.70377436  0.41390157  0.63181566    -1.12000
O211        O  0.67961212  0.39904011  0.67300846    -0.74400
O212        O  0.69742258  0.36638085  0.65564139    -0.77900
O213        O  0.72682649  0.42773082  0.58968538    -0.78600
C214        C  0.68783499  0.37675509  0.67299936     0.96700
O215        O  0.66878640  0.37560985  0.61361729    -0.76500
O216        O  0.69666117  0.44929530  0.66880578    -0.81700
C217        C  0.68240676  0.47026295  0.61797936     0.99300
C218        C  0.71946914  0.45506043  0.67116647     1.05200
O219        O  0.70596904  0.46713998  0.61759267    -0.77400
C220        C  0.64862420  0.38563014  0.61997798     1.03500
Fe221      Fe  0.62340103  0.69189874  0.37214313     1.65800
Fe222      Fe  0.57643307  0.67039916  0.33828426     1.73200
Fe223      Fe  0.56849354  0.72514542  0.36765686     1.54400
O224        O  0.57585761  0.72083922  0.40173840    -0.81100
O225        O  0.56205018  0.69678664  0.31638890    -0.79400
O226        O  0.61110306  0.69886448  0.40467969    -0.83600
O227        O  0.63241607  0.72877904  0.36741877    -0.78500
O228        O  0.53651764  0.70394488  0.37213734    -0.80200
O229        O  0.60839675  0.67077028  0.31912314    -0.83000
C230        C  0.62093919  0.74921936  0.36436834     0.97800
C231        C  0.59280664  0.71054593  0.41351809     1.05200
O232        O  0.58941496  0.69579629  0.35940625    -1.12000
O233        O  0.58941744  0.64016096  0.35668718    -0.74400
O234        O  0.61997066  0.65401429  0.37843878    -0.77900
O235        O  0.59731648  0.75054990  0.36404092    -0.78600
C236        C  0.60681630  0.63620412  0.37074169     0.96700
O237        O  0.63943494  0.68490815  0.34090419    -0.76500
O238        O  0.54281546  0.66731459  0.35500543    -0.81700
C239        C  0.55652591  0.71986278  0.31689147     0.99300
C240        C  0.52931507  0.68223638  0.36641692     1.05200
O241        O  0.55852318  0.73307428  0.33462681    -0.77400
C242        C  0.63104640  0.67669776  0.32225697     1.03500
Fe243      Fe  0.62252909  0.69292552  0.62643246     1.65800
Fe244      Fe  0.57576845  0.67269662  0.66123991     1.73200
Fe245      Fe  0.56657836  0.72483274  0.62865650     1.54400
O246        O  0.59475399  0.75140481  0.63306296    -0.81100
O247        O  0.54300007  0.66716401  0.64402454    -0.79400
O248        O  0.63036476  0.73020900  0.63015848    -0.83600
O249        O  0.61132438  0.69830936  0.59338402    -0.78500
O250        O  0.55381469  0.73383104  0.66080771    -0.80200
O251        O  0.58996955  0.64186753  0.64461255    -0.83000
C252        C  0.59308519  0.70934837  0.58401499     0.97800
C253        C  0.61852326  0.75059841  0.63266465     1.05200
O254        O  0.58828544  0.69684967  0.63875962    -1.12000
O255        O  0.60724623  0.67559682  0.68075966    -0.74400
O256        O  0.63839800  0.68699982  0.65800840    -0.77900
O257        O  0.57579185  0.72004877  0.59503434    -0.78600
C258        C  0.63000189  0.68076503  0.67728123     0.96700
O259        O  0.61933069  0.65500572  0.62100627    -0.76500
O260        O  0.55975187  0.69964315  0.68151549    -0.81700
C261        C  0.53016560  0.67931565  0.62975091     0.99300
C262        C  0.55209948  0.72190996  0.67924553     1.05200
O263        O  0.53621232  0.70110294  0.62295048    -0.77400
C264        C  0.60670756  0.63763543  0.62998162     1.03500
Fe265      Fe  0.30203302  0.61613946  0.36923111     1.65800
Fe266      Fe  0.32885775  0.57436215  0.33410158     1.73200
Fe267      Fe  0.27754759  0.55782583  0.36413213     1.54400
O268        O  0.27815927  0.56869652  0.39806403    -0.81100
O269        O  0.30369606  0.56148500  0.31077339    -0.79400
O270        O  0.30426850  0.60109704  0.40100149    -0.83600
O271        O  0.26358181  0.61754651  0.37120505    -0.78500
O272        O  0.30435109  0.53093624  0.37186103    -0.80200
O273        O  0.32669197  0.60911640  0.31869260    -0.83000
C274        C  0.24576009  0.60490736  0.36293380     0.97800
C275        C  0.29124830  0.58380131  0.40979334     1.05200
O276        O  0.30277257  0.58263286  0.35577860    -1.12000
O277        O  0.35665252  0.58595903  0.35544424    -0.74400
O278        O  0.34058562  0.62089978  0.36926327    -0.77900
O279        O  0.24847322  0.58232517  0.35671113    -0.78600
C280        C  0.35923555  0.60715435  0.36455719     0.96700
O281        O  0.29952810  0.63278596  0.33792828    -0.76500
O282        O  0.33419925  0.53871700  0.34646679    -0.81700
C283        C  0.28480481  0.54731456  0.31250520     0.99300
C284        C  0.32445292  0.52513564  0.36163311     1.05200
O285        O  0.27420334  0.54357897  0.33142766    -0.77400
C286        C  0.31290828  0.62839925  0.32066544     1.03500
Fe287      Fe  0.30610351  0.61442804  0.62401349     1.65800
Fe288      Fe  0.32634187  0.56573320  0.65638228     1.73200
Fe289      Fe  0.27527343  0.55786989  0.62229675     1.54400
O290        O  0.24795586  0.58534080  0.62457844    -0.81100
O291        O  0.33337186  0.53421608  0.63733757    -0.79400
O292        O  0.26848385  0.62139391  0.62476629    -0.83600
O293        O  0.30446206  0.60386753  0.59024885    -0.78500
O294        O  0.26406448  0.54543806  0.65383217    -0.80200
O295        O  0.35768931  0.58172365  0.64225699    -0.83000
C296        C  0.29530316  0.58521247  0.57973069     0.97800
C297        C  0.24839679  0.60904365  0.62461538     1.05200
O298        O  0.30252650  0.57938759  0.63423834    -1.12000
O299        O  0.32193649  0.59601660  0.67748459    -0.74400
O300        O  0.30824796  0.62815257  0.65701391    -0.77900
O301        O  0.28366695  0.56761744  0.58950177    -0.78600
C302        C  0.31532826  0.61880158  0.67574440     0.96700
O303        O  0.34453668  0.61373627  0.62158374    -0.76500
O304        O  0.29882573  0.54783152  0.67446305    -0.81700
C305        C  0.32027953  0.52082388  0.62417478     0.99300
C306        C  0.27608302  0.54187315  0.67202047     1.05200
O307        O  0.29842250  0.52705093  0.61803626    -0.77400
C308        C  0.36187163  0.60075416  0.63017359     1.03500
Fe309      Fe  0.38434981  0.30016193  0.36556121     1.65800
Fe310      Fe  0.42982253  0.32114903  0.33079103     1.73200
Fe311      Fe  0.43881853  0.26746525  0.36092251     1.54400
O312        O  0.42895223  0.27005336  0.39483629    -0.81100
O313        O  0.43930673  0.29410871  0.30753926    -0.79400
O314        O  0.39847833  0.29850206  0.39773246    -0.83600
O315        O  0.37689806  0.26233308  0.36579162    -0.78500
O316        O  0.46932021  0.28981716  0.36805055    -0.80200
O317        O  0.39545069  0.32423316  0.31507293    -0.83000
C318        C  0.38763925  0.24222355  0.35974958     0.97800
C319        C  0.41432650  0.28375484  0.40647958     1.05200
O320        O  0.41777805  0.29621540  0.35242638    -1.12000
O321        O  0.42179354  0.35108558  0.35171320    -0.74400
O322        O  0.38621534  0.33884554  0.36715882    -0.77900
O323        O  0.41066899  0.24181141  0.35477961    -0.78600
C324        C  0.40196858  0.35580786  0.36267207     0.96700
O325        O  0.36753093  0.30192565  0.33436766    -0.76500
O326        O  0.46566236  0.32130917  0.34356187    -0.81700
C327        C  0.44954062  0.27279667  0.30925381     0.99300
C328        C  0.47784009  0.30910267  0.35826642     1.05200
O329        O  0.45160092  0.26148567  0.32809577    -0.77400
C330        C  0.37393924  0.31445555  0.31717479     1.03500
Fe331      Fe  0.38677552  0.29749591  0.61659668     1.65800
Fe332      Fe  0.43115025  0.31827227  0.65289341     1.73200
Fe333      Fe  0.44226260  0.26556750  0.62208075     1.54400
O334        O  0.41368568  0.23925099  0.62170009    -0.81100
O335        O  0.46327007  0.32557698  0.63543281    -0.79400
O336        O  0.37818231  0.26078838  0.62195543    -0.83600
O337        O  0.40000617  0.28990028  0.58461818    -0.78500
O338        O  0.44940876  0.25547194  0.65534750    -0.80200
O339        O  0.41448921  0.34872296  0.63733410    -0.83000
C340        C  0.41984089  0.28086261  0.57610279     0.97800
C341        C  0.39000359  0.24025501  0.62243993     1.05200
O342        O  0.42007396  0.29375295  0.63040381    -1.12000
O343        O  0.40002201  0.31246192  0.67210893    -0.74400
O344        O  0.36947239  0.30556671  0.64714356    -0.77900
O345        O  0.43769826  0.27233711  0.58795205    -0.78600
C346        C  0.37716529  0.30960230  0.66713427     0.96700
O347        O  0.39076151  0.33493481  0.60938665    -0.76500
O348        O  0.44945398  0.29227633  0.67264121    -0.81700
C349        C  0.47890862  0.31083086  0.62637699     0.99300
C350        C  0.45409518  0.26900241  0.67245155     1.05200
O351        O  0.47397515  0.28816514  0.62148333    -0.77400
C352        C  0.40005231  0.35268778  0.62069539     1.03500
Fe353      Fe  0.88510686  0.19922190  0.62607141     1.65800
Fe354      Fe  0.93232539  0.17579226  0.65827078     1.73200
Fe355      Fe  0.94206053  0.22878901  0.62714854     1.54400
O356        O  0.93146852  0.22410865  0.59389746    -0.81100
O357        O  0.94975538  0.20158539  0.67853687    -0.79400
O358        O  0.89699099  0.20068100  0.59303009    -0.83600
O359        O  0.87958911  0.23730497  0.62696212    -0.78500
O360        O  0.97156869  0.20466357  0.62062335    -0.80200
O361        O  0.90123021  0.17948154  0.67866073    -0.83000
C362        C  0.89217653  0.25705933  0.63009755     0.97800
C363        C  0.91496543  0.21179926  0.58325899     1.05200
O364        O  0.91983005  0.20132797  0.63723043    -1.12000
O365        O  0.91694456  0.14596106  0.64130961    -0.74400
O366        O  0.88402258  0.16062204  0.62327286    -0.77900
O367        O  0.91572059  0.25667768  0.63211746    -0.78600
C368        C  0.89741799  0.14245014  0.62979882     0.96700
O369        O  0.87071220  0.19739822  0.65840005    -0.76500
O370        O  0.96438097  0.16953552  0.63985450    -0.81700
C371        C  0.95744804  0.22393098  0.67712581     0.99300
C372        C  0.97724455  0.18241549  0.62615464     1.05200
O373        O  0.95534677  0.23668627  0.65919861    -0.77400
C374        C  0.87925892  0.18831784  0.67667151     1.03500
Fe375      Fe  0.88472439  0.19955339  0.36960556     1.65800
Fe376      Fe  0.93187599  0.17195892  0.34030185     1.73200
Fe377      Fe  0.94397911  0.22435711  0.37094920     1.54400
O378        O  0.91924147  0.25444124  0.36692895    -0.81100
O379        O  0.95928444  0.16124477  0.36248529    -0.79400
O380        O  0.88167566  0.23708343  0.36451213    -0.83600
O381        O  0.89413797  0.20421634  0.40320119    -0.78500
O382        O  0.95743524  0.23206602  0.33892629    -0.80200
O383        O  0.90921117  0.14446857  0.35316386    -0.83000
C384        C  0.91363266  0.21120731  0.41370240     0.97800
C385        C  0.89573701  0.25601127  0.36417632     1.05200
O386        O  0.92011657  0.19867376  0.36038797    -1.12000
O387        O  0.90531410  0.18112075  0.31681487    -0.74400
O388        O  0.87249119  0.19500420  0.33649242    -0.77900
O389        O  0.93316637  0.21919498  0.40393126    -0.78600
C390        C  0.88297120  0.18899399  0.31789157     0.96700
O391        O  0.88154993  0.16188471  0.37610371    -0.76500
O392        O  0.95674209  0.19429635  0.32331722    -0.81700
C393        C  0.97517970  0.17422781  0.37315149     0.99300
C394        C  0.96376038  0.21685083  0.32350740     1.05200
O395        O  0.97224641  0.19773367  0.37620055    -0.77400
C396        C  0.89094440  0.14294275  0.36657395     1.03500
Fe397      Fe  0.12512416  0.79551782  0.62150437     1.65800
Fe398      Fe  0.07825560  0.82013412  0.65290089     1.73200
Fe399      Fe  0.06775706  0.76737746  0.62172521     1.54400
O400        O  0.08075207  0.76963487  0.58841549    -0.81100
O401        O  0.06340331  0.79438489  0.67458633    -0.79400
O402        O  0.11395182  0.79491338  0.58806667    -0.83600
O403        O  0.12941408  0.75734534  0.62159181    -0.78500
O404        O  0.03953890  0.79195480  0.61308975    -0.80200
O405        O  0.11047115  0.81921468  0.67214222    -0.83000
C406        C  0.11646329  0.73842069  0.62683609     0.97800
C407        C  0.09758950  0.78185866  0.57788193     1.05200
O408        O  0.09025973  0.79433729  0.63199093    -1.12000
O409        O  0.09148891  0.84907544  0.63361248    -0.74400
O410        O  0.12716283  0.83426712  0.62022594    -0.77900
O411        O  0.09303412  0.73950190  0.62956451    -0.78600
C412        C  0.11267770  0.85241856  0.62474900     0.96700
O413        O  0.13881787  0.79572323  0.65424373    -0.76500
O414        O  0.04455705  0.82416114  0.63669817    -0.81700
C415        C  0.05244269  0.77350748  0.67248665     0.99300
C416        C  0.03241652  0.81255400  0.62160847     1.05200
O417        O  0.05194921  0.76194624  0.65367879    -0.77400
C418        C  0.13121875  0.80768981  0.67149141     1.03500
Fe419      Fe  0.12127709  0.79622005  0.36301919     1.65800
Fe420      Fe  0.07285770  0.81887421  0.33207671     1.73200
Fe421      Fe  0.06545803  0.76521746  0.36261800     1.54400
O422        O  0.09250799  0.73874831  0.35430234    -0.81100
O423        O  0.03905976  0.82097686  0.34840484    -0.79400
O424        O  0.12797357  0.75830459  0.36196052    -0.83600
O425        O  0.11047074  0.79440478  0.39652262    -0.78500
O426        O  0.04974087  0.75917641  0.33087672    -0.80200
O427        O  0.08476419  0.84844813  0.35155420    -0.83000
C428        C  0.09452895  0.78068945  0.40650141     0.97800
C429        C  0.11607690  0.73867059  0.35667247     1.05200
O430        O  0.08641626  0.79342021  0.35258616    -1.12000
O431        O  0.10492932  0.81978978  0.31291803    -0.74400
O432        O  0.13489170  0.79815979  0.33036606    -0.77900
O433        O  0.07833573  0.76783379  0.39582662    -0.78600
C434        C  0.12650509  0.80986318  0.31332094     0.96700
O435        O  0.12079367  0.83478577  0.36524483    -0.76500
O436        O  0.05911945  0.79266714  0.31005700    -0.81700
C437        C  0.02726391  0.80870625  0.36330163     0.99300
C438        C  0.04942600  0.77124366  0.31238982     1.05200
O439        O  0.03573357  0.78845227  0.37160652    -0.77400
C440        C  0.10560011  0.85238058  0.36095798     1.03500
Fe441      Fe  0.80652614  0.87755926  0.62182058     1.65800
Fe442      Fe  0.83232634  0.92404898  0.65353369     1.73200
Fe443      Fe  0.77709380  0.93454476  0.62609607     1.54400
O444        O  0.78116753  0.92618460  0.59191486    -0.81100
O445        O  0.80755970  0.93977935  0.67605681    -0.79400
O446        O  0.80308431  0.89055296  0.58909668    -0.83600
O447        O  0.76889214  0.87136947  0.62357749    -0.78500
O448        O  0.79975098  0.96572894  0.62126722    -0.80200
O449        O  0.83123275  0.89189184  0.67259700    -0.83000
C450        C  0.74938592  0.88394151  0.62735664     0.97800
C451        C  0.79183005  0.90915789  0.58023994     1.05200
O452        O  0.80527627  0.91209412  0.63377762    -1.12000
O453        O  0.86092401  0.90991771  0.63399358    -0.74400
O454        O  0.84466428  0.87639802  0.61787793    -0.77900
O455        O  0.74965474  0.90745604  0.62994437    -0.78600
C456        C  0.86324198  0.88981456  0.62284397     0.96700
O457        O  0.80992221  0.86241478  0.65391484    -0.76500
O458        O  0.83669493  0.95752830  0.63686905    -0.81700
C459        C  0.78474958  0.94633732  0.67679217     0.99300
C460        C  0.82200493  0.97188499  0.62622108     1.05200
O461        O  0.77058609  0.94465715  0.65961065    -0.77400
C462        C  0.82169838  0.87021654  0.67121890     1.03500
Fe463      Fe  0.80213351  0.87938687  0.36581802     1.65800
Fe464      Fe  0.82700060  0.92737973  0.33619861     1.73200
Fe465      Fe  0.77407461  0.93675991  0.36622242     1.54400
O466        O  0.74604640  0.90988500  0.36394536    -0.81100
O467        O  0.83649149  0.95466746  0.35922972    -0.79400
O468        O  0.76551114  0.87364562  0.35823761    -0.83600
O469        O  0.79422942  0.88852585  0.39934446    -0.78500
O470        O  0.76515509  0.94760575  0.33370920    -0.80200
O471        O  0.85543191  0.90436999  0.34828366    -0.83000
C472        C  0.78801962  0.90854903  0.40966614     0.97800
C473        C  0.74584035  0.88659099  0.35973774     1.05200
O474        O  0.80100765  0.91439272  0.35617812    -1.12000
O475        O  0.81845382  0.90096603  0.31232157    -0.74400
O476        O  0.81030377  0.86708404  0.33308339    -0.77900
O477        O  0.78078891  0.92808226  0.39943767    -0.78600
C478        C  0.81425052  0.87769204  0.31406944     0.96700
O479        O  0.83913374  0.88001863  0.37465288    -0.76500
O480        O  0.80339377  0.95232508  0.31978365    -0.81700
C481        C  0.82197510  0.97061241  0.36827160     0.99300
C482        C  0.78003415  0.95633529  0.31906865     1.05200
O483        O  0.79850535  0.96681526  0.36988048    -0.77400
C484        C  0.85763392  0.88790849  0.36359224     1.03500
Fe485      Fe  0.20009901  0.11732926  0.62347190     1.65800
Fe486      Fe  0.17461972  0.06968655  0.65391145     1.73200
Fe487      Fe  0.23062159  0.06081924  0.62688333     1.54400
O488        O  0.22852424  0.07060294  0.59291341    -0.81100
O489        O  0.19925822  0.05543950  0.67746375    -0.79400
O490        O  0.20562974  0.10568684  0.59062411    -0.83600
O491        O  0.23751957  0.12415218  0.62769628    -0.78500
O492        O  0.20875641  0.02993808  0.61976276    -0.80200
O493        O  0.17272948  0.10213951  0.67271679    -0.83000
C494        C  0.25702281  0.11157667  0.63168742     0.97800
C495        C  0.21779186  0.08782900  0.58163619     1.05200
O496        O  0.20182556  0.08255784  0.63474233    -1.12000
O497        O  0.14653949  0.08230603  0.63293589    -0.74400
O498        O  0.16210199  0.11684818  0.61779950    -0.77900
O499        O  0.25712132  0.08796112  0.63288048    -0.78600
C500        C  0.14394018  0.10244827  0.62188347     0.96700
O501        O  0.19432619  0.13208675  0.65527697    -0.76500
O502        O  0.17262996  0.03568474  0.63769873    -0.81700
C503        C  0.22188891  0.04823001  0.67759372     0.99300
C504        C  0.18722446  0.02260983  0.62566100     1.05200
O505        O  0.23567075  0.04897525  0.66006328    -0.77400
C506        C  0.18136384  0.12419564  0.67173263     1.03500
Fe507      Fe  0.20259529  0.11213558  0.36751766     1.65800
Fe508      Fe  0.17783731  0.06387800  0.33831564     1.73200
Fe509      Fe  0.23196997  0.05534447  0.36620161     1.54400
O510        O  0.25912625  0.08315805  0.36491462    -0.81100
O511        O  0.17017312  0.03634608  0.36118893    -0.79400
O512        O  0.23909679  0.11893405  0.35853795    -0.83600
O513        O  0.21275097  0.10245505  0.40047879    -0.78500
O514        O  0.24029093  0.04663273  0.33285805    -0.80200
O515        O  0.14922948  0.08522159  0.35192501    -0.83000
C516        C  0.21960819  0.08251548  0.41067939     0.97800
C517        C  0.25906443  0.10640489  0.36058319     1.05200
O518        O  0.20418279  0.07730739  0.35747511    -1.12000
O519        O  0.18435167  0.09070644  0.31463357    -0.74400
O520        O  0.19214946  0.12472229  0.33535595    -0.77900
O521        O  0.22554665  0.06279615  0.39992196    -0.78600
C522        C  0.18717067  0.11419542  0.31650710     0.96700
O523        O  0.16556357  0.11046180  0.37771620    -0.76500
O524        O  0.20164709  0.04049702  0.32054492    -0.81700
C525        C  0.18550621  0.02005111  0.36818765     0.99300
C526        C  0.22513688  0.03843350  0.31811403     1.05200
O527        O  0.20900796  0.02381627  0.36872024    -0.77400
C528        C  0.14691793  0.10163995  0.36722792     1.03500
Fe529      Fe  0.80528503  0.11699032  0.12847018     1.65800
Fe530      Fe  0.83061238  0.06772488  0.15716655     1.73200
Fe531      Fe  0.77817972  0.05872928  0.12534069     1.54400
O532        O  0.74959625  0.08436786  0.13001408    -0.81100
O533        O  0.83847568  0.03820454  0.13628581    -0.79400
O534        O  0.76751655  0.12168406  0.13299722    -0.83600
O535        O  0.80082965  0.10885571  0.09441835    -0.78500
O536        O  0.76966117  0.04432418  0.15696763    -0.80200
O537        O  0.85949946  0.08649637  0.14210399    -0.83000
C538        C  0.79316489  0.08995167  0.08335116     0.97800
C539        C  0.74835770  0.10785161  0.13269494     1.05200
O540        O  0.80463882  0.08119654  0.13697989    -1.12000
O541        O  0.82558344  0.09599661  0.18015984    -0.74400
O542        O  0.80984215  0.12860805  0.16173269    -0.77900
O543        O  0.78413956  0.07057298  0.09263728    -0.78600
C544        C  0.81769821  0.11832530  0.17979899     0.96700
O545        O  0.84338944  0.11811250  0.12274792    -0.76500
O546        O  0.80580366  0.04670521  0.17551156    -0.81700
C547        C  0.82556384  0.02468302  0.12323243     0.99300
C548        C  0.78329806  0.03969250  0.17401375     1.05200
O549        O  0.80285911  0.02962660  0.11875301    -0.77400
C550        C  0.86193615  0.10565247  0.12986094     1.03500
Fe551      Fe  0.81063387  0.11255661  0.86942754     1.65800
Fe552      Fe  0.83400994  0.06356646  0.83905386     1.73200
Fe553      Fe  0.78054161  0.05563279  0.86983696     1.54400
O554        O  0.78661385  0.06556567  0.90323705    -0.81100
O555        O  0.80786342  0.04582567  0.81921007    -0.79400
O556        O  0.80504738  0.10303194  0.90279898    -0.83600
O557        O  0.77313425  0.11949969  0.86521538    -0.78500
O558        O  0.80349680  0.02454102  0.87495865    -0.80200
O559        O  0.83172371  0.09352635  0.81753950    -0.83000
C560        C  0.75320419  0.10676433  0.86515650     0.97800
C561        C  0.79563189  0.08457289  0.91327169     1.05200
O562        O  0.80831893  0.07730647  0.85944069    -1.12000
O563        O  0.86370281  0.07945850  0.85582888    -0.74400
O564        O  0.84864468  0.11126820  0.87542274    -0.77900
O565        O  0.75321007  0.08308719  0.86653937    -0.78600
C566        C  0.86689907  0.09803777  0.86871280     0.96700
O567        O  0.81658873  0.12596313  0.83699095    -0.76500
O568        O  0.83985012  0.03215551  0.85815947    -0.81700
C569        C  0.78483033  0.04017924  0.81983591     0.99300
C570        C  0.82580882  0.01844213  0.87001412     1.05200
O571        O  0.77151626  0.04376138  0.83732205    -0.77400
C572        C  0.82554645  0.11634810  0.81907758     1.03500
Fe573      Fe  0.88370988  0.79766411  0.12297997     1.65800
Fe574      Fe  0.93349192  0.82240985  0.15101610     1.73200
Fe575      Fe  0.94109195  0.76854429  0.12046648     1.54400
O576        O  0.91478868  0.74071076  0.12624329    -0.81100
O577        O  0.96335796  0.82869862  0.13014294    -0.79400
O578        O  0.87818190  0.76015051  0.12751272    -0.83600
O579        O  0.89218740  0.79317531  0.08903909    -0.78500
O580        O  0.95554188  0.76060308  0.15200035    -0.80200
O581        O  0.91539278  0.85176524  0.13556065    -0.83000
C582        C  0.91042735  0.78380611  0.07813222     0.97800
C583        C  0.89128050  0.74056493  0.12889900     1.05200
O584        O  0.91943568  0.79621229  0.13143551    -1.12000
O585        O  0.90515072  0.81859229  0.17397538    -0.74400
O586        O  0.87233314  0.80218894  0.15636116    -0.77900
O587        O  0.92919428  0.77382901  0.08774108    -0.78600
C588        C  0.88301814  0.81030415  0.17415489     0.96700
O589        O  0.88280230  0.83572796  0.11742859    -0.76500
O590        O  0.95366181  0.79726984  0.16986845    -0.81700
C591        C  0.97687243  0.81454863  0.11802523     0.99300
C592        C  0.95998836  0.77444643  0.16893044     1.05200
O593        O  0.97099172  0.79207975  0.11348651    -0.77400
C594        C  0.89570435  0.85415310  0.12395901     1.03500
Fe595      Fe  0.88323909  0.79415700  0.86601821     1.65800
Fe596      Fe  0.92950764  0.81522389  0.83167963     1.73200
Fe597      Fe  0.93894800  0.76224992  0.86324173     1.54400
O598        O  0.92970057  0.76719774  0.89724729    -0.81100
O599        O  0.94260891  0.78823614  0.81003048    -0.79400
O600        O  0.89627458  0.79215494  0.89847942    -0.83600
O601        O  0.87599508  0.75641379  0.86545457    -0.78500
O602        O  0.96955572  0.78525861  0.86897762    -0.80200
O603        O  0.89635009  0.81550404  0.81380176    -0.83000
C604        C  0.88763050  0.73611854  0.86218491     0.97800
C605        C  0.91390746  0.78046358  0.90808941     1.05200
O606        O  0.91725719  0.79040360  0.85355399    -1.12000
O607        O  0.91859174  0.84548420  0.85063897    -0.74400
O608        O  0.88486903  0.83272010  0.86879082    -0.77900
O609        O  0.91111271  0.73543581  0.85900546    -0.78600
C610        C  0.89970358  0.84994392  0.86275843     0.96700
O611        O  0.86698825  0.79666509  0.83451804    -0.76500
O612        O  0.96384078  0.81847834  0.84680923    -0.81700
C613        C  0.95162044  0.76636073  0.81183502     0.99300
C614        C  0.97652966  0.80614911  0.86100248     1.05200
O615        O  0.95136541  0.75436501  0.83042522    -0.77400
C616        C  0.87435496  0.80717626  0.81652172     1.03500
Fe617      Fe  0.20022793  0.87683941  0.11868774     1.65800
Fe618      Fe  0.17538253  0.92104746  0.15357268     1.73200
Fe619      Fe  0.23085783  0.93252378  0.12666503     1.54400
O620        O  0.25732901  0.90472170  0.13145811    -0.81100
O621        O  0.17312956  0.95656510  0.14012941    -0.79400
O622        O  0.23782968  0.86971254  0.12191786    -0.83600
O623        O  0.20524856  0.89175753  0.08722492    -0.78500
O624        O  0.23576487  0.94204198  0.16041804    -0.80200
O625        O  0.14710674  0.91098807  0.13198135    -0.83000
C626        C  0.21788618  0.90992229  0.07957455     0.97800
C627        C  0.25737017  0.88137641  0.12778576     1.05200
O628        O  0.20217797  0.91019652  0.13296506    -1.12000
O629        O  0.17394472  0.88673802  0.16959577    -0.74400
O630        O  0.19522491  0.85882785  0.14903711    -0.77900
O631        O  0.22920061  0.92557230  0.09212969    -0.78600
C632        C  0.18305875  0.86504413  0.16653153     0.96700
O633        O  0.16199512  0.87807815  0.11340719    -0.76500
O634        O  0.20028765  0.93251445  0.17792043    -0.81700
C635        C  0.18698972  0.97032818  0.12804691     0.99300
C636        C  0.22251977  0.94058378  0.17821731     1.05200
O637        O  0.20842847  0.96355819  0.12121176    -0.77400
C638        C  0.14411686  0.89231631  0.11909133     1.03500
Fe639      Fe  0.20131670  0.87468953  0.86847377     1.65800
Fe640      Fe  0.17437417  0.92060354  0.83738463     1.73200
Fe641      Fe  0.22968390  0.93182939  0.86441485     1.54400
O642        O  0.22820430  0.92139385  0.89815406    -0.81100
O643        O  0.19827240  0.93566326  0.81392776    -0.79400
O644        O  0.20350238  0.88776304  0.90126407    -0.83600
O645        O  0.23936659  0.86990823  0.86740260    -0.78500
O646        O  0.20604736  0.96161267  0.87218545    -0.80200
O647        O  0.17475597  0.88768372  0.81893751    -0.83000
C648        C  0.25860200  0.88225902  0.86200876     0.97800
C649        C  0.21656379  0.90523037  0.90990525     1.05200
O650        O  0.20187298  0.90914867  0.85672022    -1.12000
O651        O  0.14678259  0.90745489  0.85831339    -0.74400
O652        O  0.16290117  0.87236093  0.87147305    -0.77900
O653        O  0.25742573  0.90548476  0.85783376    -0.78600
C654        C  0.14434488  0.88645056  0.86784216     0.96700
O655        O  0.19926675  0.85973136  0.83626304    -0.76500
O656        O  0.17063902  0.95456918  0.85349457    -0.81700
C657        C  0.22013669  0.94465062  0.81387438     0.99300
C658        C  0.18406406  0.96792393  0.86633808     1.05200
O659        O  0.23389802  0.94463366  0.83143595    -0.77400
C660        C  0.18610327  0.86673948  0.81953627     1.03500
Fe661      Fe  0.12145454  0.19808682  0.12283749     1.65800
Fe662      Fe  0.07510489  0.17192624  0.15435981     1.73200
Fe663      Fe  0.06424069  0.22727680  0.12744549     1.54400
O664        O  0.09082202  0.25474696  0.13305020    -0.81100
O665        O  0.04426120  0.16566915  0.13442128    -0.79400
O666        O  0.12726252  0.23554390  0.12816257    -0.83600
O667        O  0.10934654  0.20462769  0.09024056    -0.78500
O668        O  0.05226720  0.23272342  0.16050631    -0.80200
O669        O  0.09307051  0.14366546  0.13736502    -0.83000
C670        C  0.09079948  0.21616516  0.08169865     0.97800
C671        C  0.11449878  0.25495163  0.13220426     1.05200
O672        O  0.08696246  0.19912957  0.13482820    -1.12000
O673        O  0.10514884  0.17660308  0.17558536    -0.74400
O674        O  0.13643723  0.19182385  0.15460675    -0.77900
O675        O  0.07333164  0.22548535  0.09355401    -0.78600
C676        C  0.12757701  0.18401773  0.17324439     0.96700
O677        O  0.12213229  0.16012955  0.11563052    -0.76500
O678        O  0.05489050  0.19475320  0.17545511    -0.81700
C679        C  0.02991315  0.18019132  0.12347175     0.99300
C680        C  0.04810643  0.21736389  0.17636238     1.05200
O681        O  0.03455902  0.20334800  0.12072867    -0.77400
C682        C  0.11096399  0.14127346  0.12358441     1.03500
Fe683      Fe  0.12461445  0.19739445  0.86965609     1.65800
Fe684      Fe  0.07741589  0.17392702  0.83751029     1.73200
Fe685      Fe  0.06794020  0.22776531  0.86692290     1.54400
O686        O  0.07546150  0.22248243  0.90072740    -0.81100
O687        O  0.05731389  0.19885529  0.81825039    -0.79400
O688        O  0.11321056  0.20457398  0.90249744    -0.83600
O689        O  0.13179083  0.23474791  0.86446803    -0.78500
O690        O  0.03670276  0.20463626  0.87029597    -0.80200
O691        O  0.10670194  0.17942451  0.81592269    -0.83000
C692        C  0.11913262  0.25478992  0.86381337     0.97800
C693        C  0.09414375  0.21439913  0.91183915     1.05200
O694        O  0.09008456  0.19969593  0.85818877    -1.12000
O695        O  0.09554936  0.14431934  0.85259552    -0.74400
O696        O  0.12326948  0.15939509  0.87667586    -0.77900
O697        O  0.09548875  0.25488360  0.86485885    -0.78600
C698        C  0.11239266  0.14107788  0.86732731     0.96700
O699        O  0.13918004  0.19049954  0.83763103    -0.76500
O700        O  0.04714761  0.16670486  0.85762915    -0.81700
C701        C  0.05345264  0.22224011  0.81749060     0.99300
C702        C  0.03199284  0.18153216  0.86724148     1.05200
O703        O  0.05877748  0.23646201  0.83390543    -0.77400
C704        C  0.12956983  0.18482658  0.81862056     1.03500
C705        C  0.08180842  0.24069618  0.02162389    -0.11300
C706        C  0.08930902  0.21972714  0.00911020     0.11300
C707        C  0.09728926  0.19778751  0.02034037    -0.03100
C708        C  0.09719483  0.19747029  0.04404480    -0.05800
C709        C  0.08942825  0.21827080  0.05675469    -0.16600
C710        C  0.08155466  0.24039112  0.04542926     0.02300
C711        C  0.08936880  0.22117922  0.98414057     0.12300
C712        C  0.10600107  0.17485017  0.00728044     0.62900
H713        H  0.10320813  0.18081234  0.05291262     0.12300
C714        C  0.07356864  0.26377714  0.05820668     0.55000
H715        H  0.07611816  0.25731192  0.01250396     0.08100
C716        C  0.06776640  0.21615141  0.97119208    -0.05700
C717        C  0.07022808  0.21384721  0.94763010    -0.06500
C718        C  0.09342973  0.21684117  0.93679912    -0.16100
C719        C  0.11470379  0.22368817  0.94980222    -0.01600
C720        C  0.11215987  0.22579472  0.97336168    -0.09200
C721        C  0.04231271  0.21337836  0.98225518     0.65100
H722        H  0.05399107  0.20943242  0.93746038     0.10500
C723        C  0.13991803  0.22912214  0.93908845     0.63500
H724        H  0.12823419  0.23015832  0.98377081     0.07900
F725        F  0.05127705  0.25943528  0.06933660    -0.19600
F726        F  0.06997787  0.28392161  0.04387088    -0.15800
F727        F  0.09175892  0.27036149  0.07372024    -0.19300
F728        F  0.12736251  0.18046866  0.99519362    -0.22700
F729        F  0.08756043  0.16717590  0.99245577    -0.24100
F730        F  0.11146809  0.15502238  0.02147737    -0.18100
F731        F  0.15661911  0.23914185  0.95450694    -0.20600
F732        F  0.13707783  0.24621168  0.92174793    -0.21800
F733        F  0.15019989  0.20724067  0.93072123    -0.19000
F734        F  0.02389459  0.20771362  0.96663443    -0.19100
F735        F  0.03582435  0.23557395  0.99277361    -0.22900
F736        F  0.04290286  0.19446733  0.99816252    -0.24500
C737        C  0.14243355  0.08273062  0.89397078    -0.11300
C738        C  0.14051185  0.06576128  0.87594623     0.11300
C739        C  0.12675921  0.07250522  0.85646522    -0.03100
C740        C  0.11729936  0.09698308  0.85482998    -0.05800
C741        C  0.12062660  0.11481771  0.87215634    -0.16600
C742        C  0.13240302  0.10715875  0.89259195     0.02300
C743        C  0.15361970  0.04122237  0.87736326     0.12300
C744        C  0.12219050  0.05388389  0.83742499     0.62900
H745        H  0.10775278  0.10254054  0.83950538     0.12300
C746        C  0.13408142  0.12427638  0.91303201     0.55000
H747        H  0.15242971  0.07684204  0.90897600     0.08100
C748        C  0.17845207  0.03821618  0.86951326    -0.05700
C749        C  0.18833445  0.01388077  0.86755370    -0.06500
C750        C  0.17418151  0.99272710  0.87321377    -0.16100
C751        C  0.15021336  0.99592409  0.88308447    -0.01600
C752        C  0.14030780  0.02029573  0.88499702    -0.09200
C753        C  0.19420565  0.06063109  0.86283790     0.65100
H754        H  0.20679703  0.01110295  0.86046829     0.10500
C755        C  0.13524875  0.97378497  0.89167866     0.63500
H756        H  0.12158748  0.02312239  0.89148640     0.07900
F757        F  0.15152740  0.14282207  0.90917789    -0.19600
F758        F  0.14120785  0.11133094  0.93224784    -0.15800
F759        F  0.11100286  0.13502375  0.91727893    -0.19300
F760        F  0.10900121  0.03362012  0.84562279    -0.22700
F761        F  0.14464206  0.04558019  0.82860931    -0.24100
F762        F  0.10848324  0.06430435  0.81994995    -0.18100
F763        F  0.11462810  0.98141050  0.90405978    -0.20600
F764        F  0.15006303  0.95915496  0.90557084    -0.21800
F765        F  0.12687738  0.95952580  0.87371691    -0.19000
F766        F  0.21778270  0.05355906  0.85558553    -0.19100
F767        F  0.19698481  0.07632086  0.88126251    -0.22900
F768        F  0.18282137  0.07368897  0.84549819    -0.24500
C769        C  0.17623171  0.04043913  0.12805912    -0.11300
C770        C  0.15415812  0.04212770  0.11536223     0.11300
C771        C  0.14473967  0.02063678  0.10429923    -0.03100
C772        C  0.15638807  0.99740623  0.10836672    -0.05800
C773        C  0.17763625  0.99550219  0.12219271    -0.16600
C774        C  0.18824458  0.01736994  0.13168524     0.02300
C775        C  0.14049556  0.06634486  0.11566069     0.12300
C776        C  0.12281922  0.02241335  0.08808214     0.62900
H777        H  0.14888781  0.98047212  0.10094264     0.12300
C778        C  0.21145010  0.01613624  0.14642524     0.55000
H779        H  0.18334148  0.05728808  0.13594474     0.08100
C780        C  0.12416754  0.07247448  0.13362410    -0.05700
C781        C  0.11397559  0.09666264  0.13453234    -0.06500
C782        C  0.12006778  0.11529015  0.11859245    -0.16100
C783        C  0.13585871  0.10873514  0.10009095    -0.01600
C784        C  0.14577290  0.08423578  0.09902732    -0.09200
C785        C  0.11830290  0.05384969  0.15235092     0.65100
H786        H  0.10203218  0.10150382  0.14863614     0.10500
C787        C  0.14252595  0.12721539  0.08158773     0.63500
H788        H  0.15853368  0.07905459  0.08559554     0.07900
F789        F  0.20712273  0.00074344  0.16478688    -0.19600
F790        F  0.21822186  0.03948430  0.15450134    -0.15800
F791        F  0.23124946  0.00674614  0.13400627    -0.19300
F792        F  0.12898438  0.03816089  0.07042803    -0.22700
F793        F  0.10198777  0.03183164  0.09897682    -0.24100
F794        F  0.11667128  0.99930480  0.07908293    -0.18100
F795        F  0.15833977  0.14537463  0.09007511    -0.20600
F796        F  0.12104057  0.13828980  0.07326922    -0.21800
F797        F  0.15457104  0.11566319  0.06366084    -0.19000
F798        F  0.10148192  0.06346460  0.16789784    -0.19100
F799        F  0.13993145  0.04766908  0.16383892    -0.22900
F800        F  0.10802752  0.03236145  0.14331735    -0.24500
C801        C  0.21437440  0.93266979  0.01879171    -0.11300
C802        C  0.21984876  0.91033643  0.00729667     0.11300
C803        C  0.22661346  0.88866468  0.01955618    -0.03100
C804        C  0.22629828  0.88974364  0.04321263    -0.05800
C805        C  0.22003895  0.91177779  0.05481542    -0.16600
C806        C  0.21434565  0.93382051  0.04257616     0.02300
C807        C  0.21835153  0.91003359  0.98233488     0.12300
C808        C  0.23406783  0.86450167  0.00773587     0.62900
H809        H  0.23090524  0.87322855  0.05297113     0.12300
C810        C  0.20753751  0.95808214  0.05448314     0.55000
H811        H  0.20981703  0.94910135  0.00891310     0.08100
C812        C  0.19542098  0.90656802  0.97085031    -0.05700
C813        C  0.19568087  0.90501328  0.94712676    -0.06500
C814        C  0.21800280  0.90704225  0.93479786    -0.16100
C815        C  0.24097381  0.91039746  0.94641055    -0.01600
C816        C  0.24060855  0.91224250  0.97009515    -0.09200
C817        C  0.17085934  0.90465298  0.98361930     0.65100
H818        H  0.17835064  0.90251935  0.93794574     0.10500
C819        C  0.26587961  0.91107510  0.93408543     0.63500
H820        H  0.25782312  0.91505747  0.97938544     0.07900
F821        F  0.18781238  0.95411424  0.06915759    -0.19600
F822        F  0.20047989  0.97650546  0.03932898    -0.15800
F823        F  0.22790501  0.96678592  0.06651225    -0.19300
F824        F  0.25562785  0.86825789  0.99534983    -0.22700
F825        F  0.21520708  0.85677644  0.99338430    -0.24100
F826        F  0.23864687  0.84539739  0.02297798    -0.18100
F827        F  0.28584918  0.90990546  0.94894155    -0.20600
F828        F  0.26788273  0.93304917  0.92194140    -0.21800
F829        F  0.26775290  0.89087413  0.91952224    -0.19000
F830        F  0.15096840  0.90001715  0.96925042    -0.19100
F831        F  0.16617065  0.92685283  0.99486979    -0.22900
F832        F  0.17199277  0.88540189  0.99917345    -0.24500
C833        C  0.02626477  0.84953804  0.88399999    -0.11300
C834        C  0.04730343  0.84062225  0.87240254     0.11300
C835        C  0.04565131  0.81840461  0.85938782    -0.03100
C836        C  0.02225384  0.80678112  0.85710142    -0.05800
C837        C  0.00090973  0.81655686  0.86758694    -0.16600
C838        C  0.00290004  0.83781258  0.88176080     0.02300
C839        C  0.07076900  0.85520848  0.87364514     0.12300
C840        C  0.06840713  0.80730236  0.84769962     0.62900
H841        H  0.02024675  0.79047356  0.84640687     0.12300
C842        C  0.98048825  0.84767731  0.89467697     0.55000
H843        H  0.02821478  0.86613356  0.89437826     0.08100
C844        C  0.07531570  0.87559950  0.85903755    -0.05700
C845        C  0.09923967  0.88631020  0.85887993    -0.06500
C846        C  0.11865392  0.87724649  0.87272641    -0.16100
C847        C  0.11321923  0.85830373  0.88887380    -0.01600
C848        C  0.08917473  0.84767618  0.88902323    -0.09200
C849        C  0.05521332  0.88550667  0.84321746     0.65100
H850        H  0.10325935  0.90106912  0.84691986     0.10500
C851        C  0.13246442  0.84891426  0.90572647     0.63500
H852        H  0.08486114  0.83248322  0.90047107     0.07900
F853        F  0.96209253  0.85530475  0.87980055    -0.19600
F854        F  0.98663420  0.86785942  0.90826868    -0.15800
F855        F  0.97123381  0.82889442  0.90834106    -0.19300
F856        F  0.08618877  0.80093112  0.86364293    -0.22700
F857        F  0.07851597  0.82447755  0.83285128    -0.24100
F858        F  0.06250030  0.78593025  0.83558593    -0.18100
F859        F  0.12150124  0.83498954  0.92276731    -0.20600
F860        F  0.14453727  0.86893174  0.91573935    -0.21800
F861        F  0.14970830  0.83380558  0.89487541    -0.19000
F862        F  0.06363494  0.90547196  0.83043475    -0.19100
F863        F  0.03488071  0.89362862  0.85564493    -0.22900
F864        F  0.04763904  0.86685129  0.82854417    -0.24500
C865        C  0.04635858  0.82515426  0.11009306    -0.11300
C866        C  0.04640859  0.85073167  0.10505522     0.11300
C867        C  0.02374877  0.86315512  0.10015122    -0.03100
C868        C  0.00124844  0.84998236  0.10293152    -0.05800
C869        C  0.00096545  0.82488032  0.11004175    -0.16600
C870        C  0.02393193  0.81186298  0.11283994     0.02300
C871        C  0.07025572  0.86436030  0.10769367     0.12300
C872        C  0.02345746  0.89018449  0.09226159     0.62900
H873        H  0.98357680  0.85950018  0.10044279     0.12300
C874        C  0.02497581  0.78461270  0.12006828     0.55000
H875        H  0.06413972  0.81609734  0.11325655     0.08100
C876        C  0.07748296  0.87400021  0.12900112    -0.05700
C877        C  0.10089952  0.88542789  0.13093733    -0.06500
C878        C  0.11822710  0.88516173  0.11313184    -0.16100
C879        C  0.11096553  0.87569601  0.09170402    -0.01600
C880        C  0.08670637  0.86577007  0.08926510    -0.09200
C881        C  0.06134940  0.87070672  0.15001348     0.65100
H882        H  0.10656490  0.89316098  0.14704011     0.10500
C883        C  0.12847801  0.87630986  0.07153501     0.63500
H884        H  0.08074588  0.85802698  0.07321849     0.07900
F885        F  0.01242901  0.78152361  0.14028401    -0.19600
F886        F  0.04928190  0.77636328  0.12314624    -0.15800
F887        F  0.01409543  0.76977899  0.10364235    -0.19300
F888        F  0.03672746  0.89212814  0.07229289    -0.22700
F889        F  0.03430766  0.90558090  0.10826177    -0.24100
F890        F  0.99938365  0.89869749  0.08841413    -0.18100
F891        F  0.14770453  0.85934913  0.07456336    -0.20600
F892        F  0.13831875  0.90006892  0.06910814    -0.21800
F893        F  0.11622966  0.87019167  0.05166300    -0.19000
F894        F  0.07190091  0.88189501  0.16885394    -0.19100
F895        F  0.05860383  0.84551614  0.15462796    -0.22900
F896        F  0.03802661  0.88119219  0.14678720    -0.24500
C897        C  0.89232386  0.77974273  0.01585733    -0.11300
C898        C  0.91560051  0.78380338  0.00566470     0.11300
C899        C  0.93646009  0.79026507  0.01905496    -0.03100
C900        C  0.93384391  0.78991553  0.04266819    -0.05800
C901        C  0.91073181  0.78498885  0.05309410    -0.16600
C902        C  0.88929670  0.78080376  0.03946670     0.02300
C903        C  0.91702825  0.78262720  0.98072353     0.12300
C904        C  0.96102464  0.79829147  0.00841953     0.62900
H905        H  0.94983628  0.79404797  0.05325339     0.12300
C906        C  0.86344485  0.77735473  0.04957271     0.55000
H907        H  0.87645846  0.77595812  0.00501357     0.08100
C908        C  0.92120323  0.75992000  0.96899609    -0.05700
C909        C  0.92113910  0.76021002  0.94519725    -0.06500
C910        C  0.91578254  0.78215633  0.93305993    -0.16100
C911        C  0.91150251  0.80489059  0.94502303    -0.01600
C912        C  0.91243297  0.80464674  0.96872677    -0.09200
C913        C  0.92460724  0.73541303  0.98161451     0.65100
H914        H  0.92409485  0.74300330  0.93587580     0.10500
C915        C  0.90506051  0.82924902  0.93317074     0.63500
H916        H  0.90870925  0.82158284  0.97824467     0.07900
F917        F  0.84579935  0.77168347  0.03323998    -0.19600
F918        F  0.85599543  0.79925481  0.06010446    -0.15800
F919        F  0.86376539  0.75804988  0.06511691    -0.19300
F920        F  0.95726196  0.81969686  0.99576479    -0.22700
F921        F  0.97018167  0.77965219  0.99448271    -0.24100
F922        F  0.97901171  0.80349798  0.02457449    -0.18100
F923        F  0.88083029  0.82796317  0.92520356    -0.20600
F924        F  0.92124288  0.83346098  0.91537464    -0.21800
F925        F  0.90665583  0.84958578  0.94763065    -0.19000
F926        F  0.92916808  0.71564852  0.96702898    -0.19100
F927        F  0.90318504  0.73008772  0.99373659    -0.22900
F928        F  0.94451176  0.73710085  0.99641247    -0.24500
C929        C  0.89078167  0.92090966  0.86254794    -0.11300
C930        C  0.87515135  0.92399258  0.88134576     0.11300
C931        C  0.86957433  0.90323124  0.89518607    -0.03100
C932        C  0.87925937  0.87969888  0.88915726    -0.05800
C933        C  0.89400540  0.87617997  0.86969736    -0.16600
C934        C  0.90054900  0.89741546  0.85641382     0.02300
C935        C  0.86143730  0.94803258  0.88320148     0.12300
C936        C  0.85264154  0.90569264  0.91568658     0.62900
H937        H  0.87431764  0.86356816  0.89913975     0.12300
C938        C  0.91662779  0.89555130  0.83524039     0.55000
H939        H  0.89424372  0.93708656  0.85200607     0.08100
C940        C  0.87287883  0.97056165  0.89032732    -0.05700
C941        C  0.85982790  0.99324648  0.88722246    -0.06500
C942        C  0.83600152  0.99388417  0.87718265    -0.16100
C943        C  0.82440153  0.97113569  0.87080182    -0.01600
C944        C  0.83735228  0.94860173  0.87401942    -0.09200
C945        C  0.89886769  0.97064252  0.90065318     0.65100
H946        H  0.86855913  0.01082191  0.89174408     0.10500
C947        C  0.79939044  0.97075357  0.85887727     0.63500
H948        H  0.82933968  0.93116834  0.86814065     0.07900
F949        F  0.94034367  0.88739759  0.84093455    -0.19600
F950        F  0.91912459  0.91839949  0.82447647    -0.15800
F951        F  0.90596411  0.87909785  0.81998391    -0.19300
F952        F  0.82858097  0.91130444  0.90888209    -0.22700
F953        F  0.86121067  0.92452665  0.92968238    -0.24100
F954        F  0.85185905  0.88380089  0.92815124    -0.18100
F955        F  0.80101049  0.98474703  0.83928603    -0.20600
F956        F  0.78126528  0.98060026  0.87298325    -0.21800
F957        F  0.79212403  0.94677380  0.85295936    -0.19000
F958        F  0.90598907  0.99439826  0.90738526    -0.19100
F959        F  0.91617810  0.96207780  0.88512010    -0.22900
F960        F  0.89937627  0.95529490  0.91942564    -0.24500
C961        C  0.93746172  0.10937481  0.86770938    -0.11300
C962        C  0.93931673  0.12992543  0.88227978     0.11300
C963        C  0.91821443  0.13759173  0.89487203    -0.03100
C964        C  0.89527813  0.12550750  0.89098957    -0.05800
C965        C  0.89282681  0.10586655  0.87516762    -0.16600
C966        C  0.91488648  0.09641466  0.86454088     0.02300
C967        C  0.96286355  0.14456179  0.88180921     0.12300
C968        C  0.91979119  0.15877467  0.91197294     0.62900
H969        H  0.87880784  0.13212158  0.89978857     0.12300
C970        C  0.91521233  0.07308106  0.84975752     0.55000
H971        H  0.95387980  0.10407369  0.85811867     0.08100
C972        C  0.98553728  0.13549387  0.89106868    -0.05700
C973        C  0.00764177  0.14901090  0.88703647    -0.06500
C974        C  0.00761116  0.17115777  0.87428300    -0.16100
C975        C  0.98474262  0.18067433  0.86578120    -0.01600
C976        C  0.96276638  0.16695807  0.86950463    -0.09200
C977        C  0.98649586  0.11145742  0.90471927     0.65100
H978        H  0.02536014  0.14193212  0.89318258     0.10500
C979        C  0.98365208  0.20457698  0.85200209     0.63500
H980        H  0.94528749  0.17319762  0.86218071     0.07900
F981        F  0.90481617  0.05323850  0.86141349    -0.19600
F982        F  0.93927539  0.06616523  0.84376839    -0.15800
F983        F  0.90207360  0.07723175  0.83002426    -0.19300
F984        F  0.92432920  0.18115627  0.90108655    -0.22700
F985        F  0.93891885  0.15413343  0.92711036    -0.24100
F986        F  0.89785598  0.16132848  0.92417708    -0.18100
F987        F  0.95975826  0.20961070  0.84424342    -0.20600
F988        F  0.99921934  0.20259271  0.83341693    -0.21800
F989        F  0.99110179  0.22447950  0.86532161    -0.19000
F990        F  0.00987372  0.10754444  0.91410803    -0.19100
F991        F  0.98108008  0.09120893  0.89104489    -0.22900
F992        F  0.96930324  0.11252879  0.92213047    -0.24500
C993        C  0.87220112  0.97302007  0.10934695    -0.11300
C994        C  0.85595718  0.95268203  0.10723313     0.11300
C995        C  0.82991116  0.95678029  0.10608858    -0.03100
C996        C  0.82074001  0.98111272  0.10960064    -0.05800
C997        C  0.83686485  0.00123341  0.11427202    -0.16600
C998        C  0.86315259  0.99748899  0.11242546     0.02300
C999        C  0.86647266  0.92727761  0.11007558     0.12300
C1000       C  0.81194681  0.93530206  0.10205625     0.62900
H1001       H  0.80074928  0.98414527  0.11028882     0.12300
C1002       C  0.88188118  0.01874636  0.11418808     0.55000
H1003       H  0.89211896  0.96937053  0.10981908     0.08100
C1004       C  0.87757385  0.91313755  0.09240508    -0.05700
C1005       C  0.88714259  0.88921567  0.09747278    -0.06500
C1006       C  0.88625899  0.87955184  0.11949997    -0.16100
C1007       C  0.87533741  0.89381181  0.13710048    -0.01600
C1008       C  0.86581205  0.91757748  0.13205986    -0.09200
C1009       C  0.87982250  0.92210991  0.06815525     0.65100
H1010       H  0.89545280  0.87801226  0.08413783     0.10500
C1011       C  0.87310688  0.88363587  0.16099923     0.63500
H1012       H  0.85749463  0.92887560  0.14531068     0.07900
F1013       F  0.87368904  0.03914799  0.10188749    -0.19600
F1014       F  0.90497461  0.01182138  0.10564102    -0.15800
F1015       F  0.88507008  0.02555776  0.13656209    -0.19300
F1016       F  0.81245732  0.91907479  0.12022436    -0.22700
F1017       F  0.81881431  0.92249258  0.08269117    -0.24100
F1018       F  0.78762946  0.94362928  0.09927208    -0.18100
F1019       F  0.89662602  0.87951934  0.16992974    -0.20600
F1020       F  0.85999470  0.86137911  0.16065137    -0.21800
F1021       F  0.86059867  0.90002664  0.17520141    -0.19000
F1022       F  0.86759605  0.90550826  0.05403825    -0.19100
F1023       F  0.90479714  0.92282371  0.06217672    -0.22900
F1024       F  0.86977497  0.94562127  0.06468867    -0.24500
C1025       C  0.92913658  0.12748339  0.13540152    -0.11300
C1026       C  0.93378740  0.13627992  0.11354139     0.11300
C1027       C  0.91594031  0.13251789  0.09627452    -0.03100
C1028       C  0.89260381  0.12222423  0.10216844    -0.05800
C1029       C  0.88745976  0.11439945  0.12438622    -0.16600
C1030       C  0.90631511  0.11639091  0.14123009     0.02300
C1031       C  0.95765983  0.14964890  0.11001495     0.12300
C1032       C  0.92189728  0.13856680  0.07180298     0.62900
H1033       H  0.87824575  0.11996041  0.08942400     0.12300
C1034       C  0.90230453  0.10778290  0.16548041     0.55000
H1035       H  0.94357079  0.12993879  0.14805572     0.08100
C1036       C  0.96030158  0.17508419  0.11629453    -0.05700
C1037       C  0.98446469  0.18511590  0.11800149    -0.06500
C1038       C  0.00580394  0.17012901  0.11513490    -0.16100
C1039       C  0.00308032  0.14532105  0.10691888    -0.01600
C1040       C  0.97886640  0.13545842  0.10454839    -0.09200
C1041       C  0.93783551  0.19107575  0.12271742     0.65100
H1042       H  0.98684290  0.20429505  0.12343575     0.10500
C1043       C  0.02543704  0.12895688  0.10125754     0.63500
H1044       H  0.97640092  0.11599468  0.09993070     0.07900
F1045       F  0.92228002  0.11388903  0.17930008    -0.19600
F1046       F  0.89963026  0.08206489  0.16602588    -0.15800
F1047       F  0.88117125  0.11902010  0.17437801    -0.19300
F1048       F  0.94190678  0.12413605  0.06475683    -0.22700
F1049       F  0.92804713  0.16351369  0.06952321    -0.24100
F1050       F  0.90186259  0.13360987  0.05769042    -0.18100
F1051       F  0.01867266  0.10915167  0.08745211    -0.20600
F1052       F  0.03560744  0.11931546  0.12089522    -0.21800
F1053       F  0.04335805  0.14273926  0.08992994    -0.19000
F1054       F  0.94459763  0.21548596  0.12757687    -0.19100
F1055       F  0.92631061  0.18130171  0.14164990    -0.22900
F1056       F  0.92086586  0.19167222  0.10514101    -0.24500
C1057       C  0.77605262  0.07991932  0.97508216    -0.11300
C1058       C  0.79705098  0.09003357  0.98584408     0.11300
C1059       C  0.81781337  0.09784072  0.97286064    -0.03100
C1060       C  0.81660270  0.09550716  0.94920271    -0.05800
C1061       C  0.79548761  0.08551270  0.93831497    -0.16600
C1062       C  0.77460486  0.07795264  0.95142075     0.02300
C1063       C  0.79683104  0.09142595  0.01087049     0.12300
C1064       C  0.84118358  0.10833310  0.98393858     0.62900
H1065       H  0.83236663  0.10122986  0.93896693     0.12300
C1066       C  0.75047795  0.06890018  0.94063451     0.55000
H1067       H  0.76062583  0.07371344  0.98550545     0.08100
C1068       C  0.78342310  0.11019802  0.02272438    -0.05700
C1069       C  0.78305107  0.10942990  0.04651904    -0.06500
C1070       C  0.79513845  0.09026875  0.05846852    -0.16100
C1071       C  0.80891935  0.07179967  0.04656609    -0.01600
C1072       C  0.80933212  0.07261953  0.02284736    -0.09200
C1073       C  0.76938155  0.13070764  0.01027245     0.65100
H1074       H  0.77275752  0.12340889  0.05599733     0.10500
C1075       C  0.82358383  0.05164384  0.05886429     0.63500
H1076       H  0.81915407  0.05830686  0.01336498     0.07900
F1077       F  0.73155669  0.06622695  0.95640880    -0.19600
F1078       F  0.75425839  0.04589237  0.93048866    -0.15800
F1079       F  0.74247924  0.08598744  0.92462204    -0.19300
F1080       F  0.85277519  0.08989345  0.99651840    -0.22700
F1081       F  0.83500371  0.12807371  0.99800187    -0.24100
F1082       F  0.85814474  0.11698351  0.96810472    -0.18100
F1083       F  0.80733313  0.03521340  0.06924029    -0.20600
F1084       F  0.83881640  0.06254436  0.07497698    -0.21800
F1085       F  0.83861250  0.03802425  0.04428197    -0.19000
F1086       F  0.75893235  0.14790732  0.02503702    -0.19100
F1087       F  0.75028568  0.12040771  0.99760381    -0.22900
F1088       F  0.78546743  0.14337001  0.99604972    -0.24500
C1089       C  0.22843766  0.95795203  0.24029591    -0.11300
C1090       C  0.24344098  0.97926352  0.23856577     0.11300
C1091       C  0.25662894  0.98388478  0.21834640    -0.03100
C1092       C  0.25049620  0.96974006  0.19903376    -0.05800
C1093       C  0.23262031  0.95045096  0.19992454    -0.16600
C1094       C  0.22332186  0.94288802  0.22139241     0.02300
C1095       C  0.24211085  0.99768587  0.25728138     0.12300
C1096       C  0.27711773  0.00340398  0.21739955     0.62900
H1097       H  0.25877222  0.97453488  0.18291486     0.12300
C1098       C  0.20795245  0.91933263  0.22471485     0.55000
H1099       H  0.21946963  0.95404843  0.25633775     0.08100
C1100       C  0.22287555  0.01588996  0.25775057    -0.05700
C1101       C  0.21951026  0.03004521  0.27749995    -0.06500
C1102       C  0.23404688  0.02610369  0.29698921    -0.16100
C1103       C  0.25413575  0.00870566  0.29611281    -0.01600
C1104       C  0.25779774  0.99472299  0.27609006    -0.09200
C1105       C  0.20506386  0.01947401  0.23790253     0.65100
H1106       H  0.20453393  0.04367966  0.27822975     0.10500
C1107       C  0.27080134  0.00394110  0.31640529     0.63500
H1108       H  0.27223165  0.98052860  0.27526141     0.07900
F1109       F  0.18346806  0.92348212  0.21825885    -0.19600
F1110       F  0.20798270  0.91200608  0.24717295    -0.15800
F1111       F  0.21793611  0.89988941  0.21214575    -0.19300
F1112       F  0.29537290  0.99742244  0.23304361    -0.22700
F1113       F  0.26768947  0.02683866  0.22239155    -0.24100
F1114       F  0.28819062  0.00436860  0.19626084    -0.18100
F1115       F  0.28833131  0.98544898  0.31212162    -0.20600
F1116       F  0.25646553  0.99639594  0.33461379    -0.21800
F1117       F  0.28353497  0.02558445  0.32194300    -0.19000
F1118       F  0.18791022  0.03838920  0.24191064    -0.19100
F1119       F  0.19189287  0.99767768  0.23397429    -0.22900
F1120       F  0.21826541  0.02564047  0.21864074    -0.24500
C1121       C  0.17722241  0.16377702  0.21470305    -0.11300
C1122       C  0.16469045  0.16922656  0.23493002     0.11300
C1123       C  0.14361117  0.18512881  0.23477808    -0.03100
C1124       C  0.13306924  0.19147864  0.21387271    -0.05800
C1125       C  0.14360902  0.18308418  0.19348796    -0.16600
C1126       C  0.16712688  0.17083307  0.19369523     0.02300
C1127       C  0.17141026  0.15491550  0.25536644     0.12300
C1128       C  0.13186664  0.19441382  0.25660950     0.62900
H1129       H  0.11567498  0.20187085  0.21330349     0.12300
C1130       C  0.18078823  0.16410143  0.17202691     0.55000
H1131       H  0.19395426  0.15237640  0.21546434     0.08100
C1132       C  0.16055305  0.13127651  0.25947666    -0.05700
C1133       C  0.16644246  0.11896263  0.27962322    -0.06500
C1134       C  0.18273834  0.12934075  0.29579292    -0.16100
C1135       C  0.19384303  0.15300634  0.29144625    -0.01600
C1136       C  0.18803293  0.16531814  0.27104193    -0.09200
C1137       C  0.14263206  0.11912310  0.24272337     0.65100
H1138       H  0.15786240  0.10104278  0.28302401     0.10500
C1139       C  0.21187528  0.16519779  0.30787854     0.63500
H1140       H  0.19604406  0.18342723  0.26727705     0.07900
F1141       F  0.16625720  0.14832737  0.15896196    -0.19600
F1142       F  0.20328607  0.15218108  0.17630405    -0.15800
F1143       F  0.18590032  0.18566901  0.16000664    -0.19300
F1144       F  0.14958687  0.20713564  0.26913840    -0.22700
F1145       F  0.12302837  0.17451461  0.26916511    -0.24100
F1146       F  0.11213565  0.21058864  0.25256096    -0.18100
F1147       F  0.23099164  0.14873844  0.31298017    -0.20600
F1148       F  0.19939390  0.17185552  0.32745649    -0.21800
F1149       F  0.22249059  0.18662942  0.29897056    -0.19000
F1150       F  0.13412219  0.09615631  0.25027193    -0.19100
F1151       F  0.15454389  0.11531209  0.22227074    -0.22900
F1152       F  0.12203915  0.13430856  0.23937283    -0.24500
C1153       C  0.23956672  0.09441932  0.52088837    -0.11300
C1154       C  0.21839000  0.08594466  0.50918081     0.11300
C1155       C  0.19739160  0.07715766  0.52138758    -0.03100
C1156       C  0.19789541  0.07827246  0.54514132    -0.05800
C1157       C  0.21896861  0.08691164  0.55679319    -0.16600
C1158       C  0.24023375  0.09501650  0.54467113     0.02300
C1159       C  0.21912363  0.08566113  0.48408468     0.12300
C1160       C  0.17489713  0.06601271  0.50941295     0.62900
H1161       H  0.18196272  0.07200174  0.55489212     0.12300
C1162       C  0.26333170  0.10436129  0.55690702     0.55000
H1163       H  0.25557994  0.10055057  0.51117983     0.08100
C1164       C  0.21294522  0.10689460  0.47105919    -0.05700
C1165       C  0.21342818  0.10490878  0.44733132    -0.06500
C1166       C  0.22039988  0.08259663  0.43612545    -0.16100
C1167       C  0.22768490  0.06154635  0.44957308    -0.01600
C1168       C  0.22674721  0.06365073  0.47331625    -0.09200
C1169       C  0.20608439  0.13160277  0.48224296     0.65100
H1170       H  0.20830871  0.12107800  0.43737120     0.10500
C1171       C  0.23658004  0.03685972  0.43949702     0.63500
H1172       H  0.23189718  0.04795934  0.48391163     0.07900
F1173       F  0.28172592  0.11200945  0.54199120    -0.19600
F1174       F  0.27305248  0.08539584  0.57013679    -0.15800
F1175       F  0.25713023  0.12447351  0.57055526    -0.19300
F1176       F  0.18202125  0.04455170  0.49803591    -0.22700
F1177       F  0.16516111  0.08289513  0.49408399    -0.24100
F1178       F  0.15611890  0.05972278  0.52446162    -0.18100
F1179       F  0.25738384  0.04087488  0.42610640    -0.20600
F1180       F  0.21768007  0.02615568  0.42682288    -0.21800
F1181       F  0.24331677  0.01975005  0.45598024    -0.19000
F1182       F  0.20055501  0.14994600  0.46650969    -0.19100
F1183       F  0.22586053  0.13995318  0.49523674    -0.22900
F1184       F  0.18542085  0.12856406  0.49596752    -0.24500
C1185       C  0.22660682  0.02723048  0.73858649    -0.11300
C1186       C  0.24205001  0.00614290  0.73655308     0.11300
C1187       C  0.25424179  0.00135624  0.71571674    -0.03100
C1188       C  0.24861108  0.01672495  0.69700316    -0.05800
C1189       C  0.23191563  0.03702368  0.69878924    -0.16600
C1190       C  0.22262475  0.04366597  0.72047444     0.02300
C1191       C  0.24155558  0.98781439  0.75546291     0.12300
C1192       C  0.27291092  0.98009458  0.71321900     0.62900
H1193       H  0.25623746  0.01214359  0.68055173     0.12300
C1194       C  0.20847756  0.06771660  0.72536027     0.55000
H1195       H  0.21734216  0.03081281  0.75458203     0.08100
C1196       C  0.25243383  0.99268667  0.77685320    -0.05700
C1197       C  0.24604009  0.97717764  0.79521002    -0.06500
C1198       C  0.22918168  0.95714592  0.79287049    -0.16100
C1199       C  0.21996710  0.95113657  0.77092759    -0.01600
C1200       C  0.22603598  0.96693689  0.75277139    -0.09200
C1201       C  0.27066099  0.01412382  0.78034309     0.65100
H1202       H  0.25335699  0.98137344  0.81184864     0.10500
C1203       C  0.20348698  0.92852406  0.76633105     0.63500
H1204       H  0.21759059  0.96380667  0.73635781     0.07900
F1205       F  0.21297498  0.08589540  0.70925902    -0.19600
F1206       F  0.21603656  0.07740870  0.74597989    -0.15800
F1207       F  0.18314851  0.06279988  0.72633962    -0.19300
F1208       F  0.26151611  0.95735756  0.71717357    -0.22700
F1209       F  0.29213551  0.98326238  0.72853959    -0.24100
F1210       F  0.28322770  0.97936023  0.69176006    -0.18100
F1211       F  0.17953792  0.93291500  0.77417915    -0.20600
F1212       F  0.21329702  0.90760401  0.77682013    -0.21800
F1213       F  0.20189852  0.92331191  0.74343153    -0.19000
F1214       F  0.27911795  0.01532363  0.80244380    -0.19100
F1215       F  0.25945863  0.03673980  0.77534636    -0.22900
F1216       F  0.29114332  0.01084115  0.76644439    -0.24500
C1217       C  0.14803429  0.15734102  0.71945389    -0.11300
C1218       C  0.16818166  0.16825014  0.73089911     0.11300
C1219       C  0.19241227  0.16729603  0.72136967    -0.03100
C1220       C  0.19597429  0.15346134  0.70136168    -0.05800
C1221       C  0.17600100  0.14115954  0.69076628    -0.16600
C1222       C  0.15137743  0.14445692  0.69905335     0.02300
C1223       C  0.16349843  0.17681127  0.75429296     0.12300
C1224       C  0.21428183  0.18064531  0.73236925     0.62900
H1225       H  0.21453278  0.15127876  0.69438101     0.12300
C1226       C  0.12865873  0.13491745  0.68627258     0.55000
H1227       H  0.12967110  0.15812856  0.72713895     0.08100
C1228       C  0.14891511  0.19827849  0.75916540    -0.05700
C1229       C  0.14016791  0.20164070  0.78135400    -0.06500
C1230       C  0.14522452  0.18404793  0.79831320    -0.16100
C1231       C  0.16090315  0.16337820  0.79377039    -0.01600
C1232       C  0.16995989  0.16018141  0.77169692    -0.09200
C1233       C  0.14139505  0.21673200  0.74086490     0.65100
H1234       H  0.12774306  0.21708216  0.78527182     0.10500
C1235       C  0.16639501  0.14387642  0.81173889     0.63500
H1236       H  0.18065907  0.14360779  0.76743002     0.07900
F1237       F  0.10665220  0.14458602  0.69500943    -0.19600
F1238       F  0.12741455  0.10914350  0.68754783    -0.15800
F1239       F  0.13017843  0.14211753  0.66386021    -0.19300
F1240       F  0.21919140  0.17051190  0.75337888    -0.22700
F1241       F  0.20870240  0.20574792  0.73487486    -0.24100
F1242       F  0.23576727  0.17873118  0.71945399    -0.18100
F1243       F  0.18215559  0.12525622  0.80381864    -0.20600
F1244       F  0.14436255  0.13279102  0.81864007    -0.21800
F1245       F  0.17772676  0.15513351  0.83012359    -0.19000
F1246       F  0.13016458  0.23785436  0.74990007    -0.19100
F1247       F  0.12463937  0.20571314  0.72615029    -0.22900
F1248       F  0.16221590  0.22429948  0.72890471    -0.24500
C1249       C  0.81797082  0.85724066  0.25248334    -0.11300
C1250       C  0.82747509  0.83292571  0.25480444     0.11300
C1251       C  0.82918150  0.82219415  0.27664461    -0.03100
C1252       C  0.82364782  0.83714440  0.29552776    -0.05800
C1253       C  0.81561968  0.86207570  0.29328668    -0.16600
C1254       C  0.81100178  0.87173326  0.27127226     0.02300
C1255       C  0.84048321  0.82211697  0.23489901     0.12300
C1256       C  0.83772180  0.79556218  0.28105812     0.62900
H1257       H  0.82659695  0.82941505  0.31225815     0.12300
C1258       C  0.79889743  0.89710563  0.26723218     0.55000
H1259       H  0.81752665  0.86555334  0.23580056     0.08100
C1260       C  0.82810154  0.81595289  0.21451414    -0.05700
C1261       C  0.84261339  0.81111987  0.19512444    -0.06500
C1262       C  0.86892514  0.81133187  0.19586653    -0.16100
C1263       C  0.88100927  0.81382889  0.21723796    -0.01600
C1264       C  0.86652178  0.82016517  0.23613966    -0.09200
C1265       C  0.79982503  0.81401184  0.21340039     0.65100
H1266       H  0.83337916  0.80805588  0.17907485     0.10500
C1267       C  0.90892896  0.80980087  0.22060634     0.63500
H1268       H  0.87558269  0.82439990  0.25207564     0.07900
F1269       F  0.77826804  0.89985150  0.28111600    -0.19600
F1270       F  0.79081387  0.89957024  0.24509442    -0.15800
F1271       F  0.81577763  0.91608539  0.27147124    -0.19300
F1272       F  0.86063257  0.79600042  0.29187981    -0.22700
F1273       F  0.83986320  0.78148079  0.26152880    -0.24100
F1274       F  0.82056705  0.78381050  0.29492848    -0.18100
F1275       F  0.92208404  0.83029087  0.21281189    -0.20600
F1276       F  0.91658268  0.78847001  0.20925876    -0.21800
F1277       F  0.91484515  0.80658325  0.24321707    -0.19000
F1278       F  0.79194595  0.80378987  0.19309963    -0.19100
F1279       F  0.78899435  0.83735581  0.21557184    -0.22900
F1280       F  0.79140546  0.79877290  0.23067049    -0.24500
C1281       C  0.77267746  0.00743094  0.27536342    -0.11300
C1282       C  0.75849532  0.99504711  0.25884116     0.11300
C1283       C  0.74805885  0.97133908  0.26385738    -0.03100
C1284       C  0.75447465  0.95965068  0.28434472    -0.05800
C1285       C  0.77023590  0.97130208  0.30006106    -0.16600
C1286       C  0.77817379  0.99619982  0.29624340     0.02300
C1287       C  0.76028682  0.00473106  0.23539145     0.12300
C1288       C  0.73085083  0.95732091  0.24794049     0.62900
H1289       H  0.74784865  0.94086584  0.28770862     0.12300
C1290       C  0.79194807  0.01095709  0.31429344     0.55000
H1291       H  0.78066015  0.02547518  0.27127566     0.08100
C1292       C  0.74839702  0.02703797  0.22819378    -0.05700
C1293       C  0.75508889  0.03724542  0.20708124    -0.06500
C1294       C  0.77307750  0.02567487  0.19332212    -0.16100
C1295       C  0.78331375  0.00228999  0.19970896    -0.01600
C1296       C  0.77673266  0.99222173  0.22077298    -0.09200
C1297       C  0.72869642  0.03975544  0.24265622     0.65100
H1298       H  0.74726590  0.05495349  0.20166377     0.10500
C1299       C  0.80125490  0.98813775  0.18438578     0.63500
H1300       H  0.78533216  0.97499991  0.22651827     0.07900
F1301       F  0.79549539  0.03563993  0.30799628    -0.19600
F1302       F  0.81512191  0.00049077  0.31842279    -0.15800
F1303       F  0.77802754  0.01082309  0.33397649    -0.19300
F1304       F  0.74294088  0.93619834  0.23997360    -0.22700
F1305       F  0.72329753  0.97161846  0.22971005    -0.24100
F1306       F  0.70963926  0.95007960  0.25957736    -0.18100
F1307       F  0.82351487  0.00102434  0.18246663    -0.20600
F1308       F  0.79072584  0.98540183  0.16316598    -0.21800
F1309       F  0.80658023  0.96450474  0.19266658    -0.19000
F1310       F  0.71829592  0.06021728  0.23181278    -0.19100
F1311       F  0.73903846  0.04795238  0.26273760    -0.22900
F1312       F  0.70974781  0.02298820  0.24733355    -0.24500
C1313       C  0.77084738  0.91753207  0.51893616    -0.11300
C1314       C  0.79207700  0.90899068  0.50739833     0.11300
C1315       C  0.81375173  0.90229115  0.51961532    -0.03100
C1316       C  0.81280533  0.90283599  0.54335255    -0.05800
C1317       C  0.79137759  0.91076232  0.55513552    -0.16600
C1318       C  0.77008542  0.91877553  0.54270414     0.02300
C1319       C  0.79122207  0.90813841  0.48238095     0.12300
C1320       C  0.83796448  0.89545050  0.50762980     0.62900
H1321       H  0.82910833  0.89756751  0.55296543     0.12300
C1322       C  0.74649959  0.92817597  0.55424283     0.55000
H1323       H  0.75480963  0.92325139  0.50902298     0.08100
C1324       C  0.78144172  0.88735821  0.47048482    -0.05700
C1325       C  0.78094961  0.88812787  0.44670406    -0.06500
C1326       C  0.78929418  0.90918190  0.43470788    -0.16100
C1327       C  0.79901785  0.93005819  0.44678851    -0.01600
C1328       C  0.79971019  0.92907699  0.47052047    -0.09200
C1329       C  0.77130687  0.86467667  0.48291151     0.65100
H1330       H  0.77356509  0.87242209  0.43725907     0.10500
C1331       C  0.80925013  0.95307708  0.43489019     0.63500
H1332       H  0.80676685  0.94480238  0.48015206     0.07900
F1333       F  0.72739635  0.93244630  0.53893555    -0.19600
F1334       F  0.75138645  0.95052392  0.56518289    -0.15800
F1335       F  0.73817527  0.91068306  0.56971288    -0.19300
F1336       F  0.84691795  0.91612548  0.49621628    -0.22700
F1337       F  0.83402125  0.87633692  0.49229427    -0.24100
F1338       F  0.85618890  0.88762841  0.52266959    -0.18100
F1339       F  0.82120282  0.96910660  0.44976859    -0.20600
F1340       F  0.78995707  0.96623875  0.42485649    -0.21800
F1341       F  0.82641476  0.94596207  0.41861802    -0.19000
F1342       F  0.76289394  0.84645322  0.46811529    -0.19100
F1343       F  0.75151132  0.87174938  0.49651548    -0.22900
F1344       F  0.78975267  0.85420927  0.49625212    -0.24500
C1345       C  0.85109265  0.83528283  0.71984833    -0.11300
C1346       C  0.82991001  0.82875387  0.73239449     0.11300
C1347       C  0.80576888  0.83311138  0.72351518    -0.03100
C1348       C  0.80363011  0.84545307  0.70256887    -0.05800
C1349       C  0.82490853  0.85364862  0.69085002    -0.16600
C1350       C  0.84904993  0.84773421  0.69911255     0.02300
C1351       C  0.83427279  0.81971479  0.75565229     0.12300
C1352       C  0.78262067  0.82491341  0.73627576     0.62900
H1353       H  0.78537332  0.84990260  0.69576744     0.12300
C1354       C  0.87260254  0.85478495  0.68625386     0.55000
H1355       H  0.86936022  0.83155082  0.72701102     0.08100
C1356       C  0.84463352  0.79584137  0.76018866    -0.05700
C1357       C  0.85583794  0.79167558  0.78131811    -0.06500
C1358       C  0.85673110  0.81048820  0.79780922    -0.16100
C1359       C  0.84435354  0.83355339  0.79402774    -0.01600
C1360       C  0.83348462  0.83779635  0.77282676    -0.09200
C1361       C  0.84543707  0.77463773  0.74313935     0.65100
H1362       H  0.86525731  0.77403380  0.78447257     0.10500
C1363       C  0.84307916  0.85477631  0.81110023     0.63500
H1364       H  0.82572242  0.85610578  0.76913468     0.07900
F1365       F  0.89359498  0.84333226  0.69522905    -0.19600
F1366       F  0.87618623  0.88036638  0.68721144    -0.15800
F1367       F  0.87051798  0.84739313  0.66391106    -0.19300
F1368       F  0.78072583  0.83799469  0.75638262    -0.22700
F1369       F  0.78414943  0.79960562  0.74092668    -0.24100
F1370       F  0.76105993  0.82909260  0.72389912    -0.18100
F1371       F  0.85618768  0.87509398  0.80288639    -0.20600
F1372       F  0.85267551  0.84847404  0.83199249    -0.21800
F1373       F  0.81840138  0.86173568  0.81416987    -0.19000
F1374       F  0.83454846  0.75363557  0.75254257    -0.19100
F1375       F  0.87005387  0.76923797  0.73791552    -0.22900
F1376       F  0.83284932  0.78004695  0.72332992    -0.24500
C1377       C  0.75117614  0.98612002  0.72168661    -0.11300
C1378       C  0.76767436  0.98298424  0.73984013     0.11300
C1379       C  0.78666820  0.96465758  0.73855524    -0.03100
C1380       C  0.79004057  0.95172927  0.71812206    -0.05800
C1381       C  0.77544826  0.95680041  0.69878951    -0.16600
C1382       C  0.75458795  0.97327479  0.70102597     0.02300
C1383       C  0.76687428  0.00101826  0.75892919     0.12300
C1384       C  0.80403138  0.95959511  0.75841031     0.62900
H1385       H  0.80510940  0.93826743  0.71685763     0.12300
C1386       C  0.73635800  0.97810110  0.68185664     0.55000
H1387       H  0.73639243  0.99983648  0.72348382     0.08100
C1388       C  0.78096240  0.02331394  0.75813274    -0.05700
C1389       C  0.78488890  0.03654414  0.77829823    -0.06500
C1390       C  0.77414451  0.02893454  0.79887744    -0.16100
C1391       C  0.75628039  0.00925647  0.79862089    -0.01600
C1392       C  0.75367918  0.99494777  0.77865419    -0.09200
C1393       C  0.79215517  0.03276630  0.73612715     0.65100
H1394       H  0.79718496  0.05261776  0.77827494     0.10500
C1395       C  0.73982159  0.00351689  0.81884245     0.63500
H1396       H  0.74187565  0.97851693  0.77841120     0.07900
F1397       F  0.74865643  0.98864368  0.66373137    -0.19600
F1398       F  0.71739375  0.99431468  0.68818595    -0.15800
F1399       F  0.72541930  0.95586923  0.67526425    -0.19300
F1400       F  0.79017960  0.95262193  0.77708610    -0.22700
F1401       F  0.81753433  0.98087278  0.76358180    -0.24100
F1402       F  0.82086428  0.94056101  0.75377813    -0.18100
F1403       F  0.72359263  0.98394609  0.81450677    -0.20600
F1404       F  0.72569018  0.02440211  0.82408996    -0.21800
F1405       F  0.75408613  0.99705207  0.83730711    -0.19000
F1406       F  0.80487781  0.05505600  0.73909935    -0.19100
F1407       F  0.77324455  0.03690022  0.72063685    -0.22900
F1408       F  0.80869468  0.01538248  0.72737521    -0.24500
C1409       C  0.98068946  0.74017586  0.22213645    -0.11300
C1410       C  0.00125536  0.75499405  0.22808661     0.11300
C1411       C  0.01007102  0.77345407  0.21296767    -0.03100
C1412       C  0.99647259  0.77797237  0.19317756    -0.05800
C1413       C  0.97459018  0.76471324  0.18806331    -0.16600
C1414       C  0.96669367  0.74500947  0.20247233     0.02300
C1415       C  0.01064114  0.75409879  0.25159116     0.12300
C1416       C  0.03311542  0.78906631  0.21818093     0.62900
H1417       H  0.00223746  0.79284805  0.18192413     0.12300
C1418       C  0.94315359  0.72959595  0.19912930     0.55000
H1419       H  0.97436976  0.72596314  0.23387537     0.08100
C1420       C  0.99914270  0.76877413  0.26865084    -0.05700
C1421       C  0.01171299  0.77199225  0.28925218    -0.06500
C1422       C  0.03533129  0.76146928  0.29296992    -0.16100
C1423       C  0.04611694  0.74558576  0.27651078    -0.01600
C1424       C  0.03323393  0.74170955  0.25604725    -0.09200
C1425       C  0.97435152  0.78205034  0.26464457     0.65100
H1426       H  0.00389514  0.78407427  0.30218357     0.10500
C1427       C  0.07179915  0.73436592  0.28001701     0.63500
H1428       H  0.04157023  0.73056474  0.24271759     0.07900
F1429       F  0.92839085  0.73140562  0.21827285    -0.19600
F1430       F  0.94974516  0.70480797  0.19598175    -0.15800
F1431       F  0.92888183  0.73707007  0.18093564    -0.19300
F1432       F  0.05374470  0.77360894  0.22000819    -0.22700
F1433       F  0.02990851  0.80196772  0.23825370    -0.24100
F1434       F  0.03794038  0.80640590  0.20137146    -0.18100
F1435       F  0.07214129  0.72063192  0.29980905    -0.20600
F1436       F  0.08916689  0.75337972  0.28146381    -0.21800
F1437       F  0.07860106  0.71871026  0.26237862    -0.19000
F1438       F  0.96705015  0.79607730  0.28320561    -0.19100
F1439       F  0.95591427  0.76460446  0.26036764    -0.22900
F1440       F  0.97621743  0.79805981  0.24637695    -0.24500
C1441       C  0.16479930  0.79702219  0.26030060    -0.11300
C1442       C  0.16267433  0.82032706  0.24964407     0.11300
C1443       C  0.15116815  0.84064255  0.26103880    -0.03100
C1444       C  0.14108718  0.83652873  0.28250716    -0.05800
C1445       C  0.14200877  0.81297600  0.29285398    -0.16600
C1446       C  0.15487101  0.79301788  0.28207431     0.02300
C1447       C  0.17088309  0.82313852  0.22594999     0.12300
C1448       C  0.14888326  0.86646869  0.25037725     0.62900
H1449       H  0.13150068  0.85161928  0.29116152     0.12300
C1450       C  0.15784414  0.76768861  0.29327161     0.55000
H1451       H  0.17385503  0.78191676  0.25122424     0.08100
C1452       C  0.19542145  0.83072256  0.22041401    -0.05700
C1453       C  0.19945643  0.84224083  0.19938618    -0.06500
C1454       C  0.17952716  0.84659797  0.18454076    -0.16100
C1455       C  0.15583512  0.83600053  0.18890138    -0.01600
C1456       C  0.15213814  0.82353145  0.20944317    -0.09200
C1457       C  0.21672139  0.82781903  0.23710318     0.65100
H1458       H  0.21764053  0.84983814  0.19524920     0.10500
C1459       C  0.13388457  0.84029018  0.17319604     0.63500
H1460       H  0.13363680  0.81705301  0.21400378     0.07900
F1461       F  0.16933131  0.75050579  0.27913109    -0.19600
F1462       F  0.13477821  0.75822453  0.29927210    -0.15800
F1463       F  0.17242592  0.77028003  0.31240627    -0.19300
F1464       F  0.13325630  0.86556356  0.23180066    -0.22700
F1465       F  0.17213466  0.87476916  0.24367570    -0.24100
F1466       F  0.13914935  0.88390062  0.26532400    -0.18100
F1467       F  0.11361948  0.82549562  0.17886199    -0.20600
F1468       F  0.14057550  0.83480196  0.15114831    -0.21800
F1469       F  0.12663533  0.86502786  0.17466189    -0.19000
F1470       F  0.23917896  0.83591793  0.22811557    -0.19100
F1471       F  0.21930280  0.80287412  0.24280279    -0.22900
F1472       F  0.21189831  0.84156312  0.25644053    -0.24500
C1473       C  0.91684476  0.86106410  0.39032236    -0.11300
C1474       C  0.92891460  0.85150541  0.37109343     0.11300
C1475       C  0.91706035  0.85300446  0.34972649    -0.03100
C1476       C  0.89414152  0.86574863  0.34809125    -0.05800
C1477       C  0.88226832  0.87589824  0.36718899    -0.16600
C1478       C  0.89334319  0.87293724  0.38880753     0.02300
C1479       C  0.95452201  0.84103035  0.37340164     0.12300
C1480       C  0.92854052  0.84105736  0.32879174     0.62900
H1481       H  0.88496069  0.86744561  0.33183520     0.12300
C1482       C  0.88062772  0.88254548  0.41006039     0.55000
H1483       H  0.92608475  0.85919159  0.40652378     0.08100
C1484       C  0.97578101  0.85643484  0.37117984    -0.05700
C1485       C  0.99939861  0.84506829  0.36949860    -0.06500
C1486       C  0.00246599  0.81890300  0.37033742    -0.16100
C1487       C  0.98127282  0.80367890  0.37486633    -0.01600
C1488       C  0.95753474  0.81515876  0.37625754    -0.09200
C1489       C  0.97338080  0.88476387  0.37036671     0.65100
H1490       H  0.01572537  0.85662645  0.36680355     0.10500
C1491       C  0.98334099  0.77547413  0.37725512     0.63500
H1492       H  0.94091667  0.80392593  0.37858588     0.07900
F1493       F  0.89601517  0.88065460  0.42879667    -0.19600
F1494       F  0.85932251  0.86871163  0.41424894    -0.15800
F1495       F  0.87418346  0.90743250  0.40739696    -0.19300
F1496       F  0.93182078  0.81570004  0.33231544    -0.22700
F1497       F  0.95144544  0.85179111  0.32417450    -0.24100
F1498       F  0.91348446  0.84397221  0.30993329    -0.18100
F1499       F  0.96034912  0.76447722  0.38118602    -0.20600
F1500       F  0.99869921  0.76972655  0.39533611    -0.21800
F1501       F  0.99308587  0.76521919  0.35765132    -0.19000
F1502       F  0.99633508  0.89628836  0.36774780    -0.19100
F1503       F  0.96289123  0.89325634  0.39032004    -0.22900
F1504       F  0.95833094  0.89191770  0.35250414    -0.24500
C1505       C  0.12066778  0.92175549  0.35607167    -0.11300
C1506       C  0.13820944  0.92422294  0.37347792     0.11300
C1507       C  0.14195724  0.90444807  0.38888958    -0.03100
C1508       C  0.12965983  0.88165019  0.38494779    -0.05800
C1509       C  0.11346609  0.87834219  0.36642680    -0.16600
C1510       C  0.10804343  0.89911269  0.35217084     0.02300
C1511       C  0.15280172  0.94767557  0.37454607     0.12300
C1512       C  0.15900576  0.90745338  0.40922610     0.62900
H1513       H  0.13313422  0.86592490  0.39604360     0.12300
C1514       C  0.08991608  0.89745726  0.33241080     0.55000
H1515       H  0.11764997  0.93763553  0.34504157     0.08100
C1516       C  0.17416203  0.95133039  0.36080600    -0.05700
C1517       C  0.18571667  0.97489345  0.36093299    -0.06500
C1518       C  0.17577978  0.99494268  0.37336069    -0.16100
C1519       C  0.15492425  0.99105404  0.38765232    -0.01600
C1520       C  0.14382473  0.96724321  0.38810743    -0.09200
C1521       C  0.18376503  0.93096584  0.34503542     0.65100
H1522       H  0.20150598  0.97839620  0.34992211     0.10500
C1523       C  0.14410681  0.01201374  0.40196541     0.63500
H1524       H  0.12729805  0.96402062  0.39826028     0.07900
F1525       F  0.08852252  0.91968719  0.32047305    -0.19600
F1526       F  0.06620569  0.89213402  0.34034720    -0.15800
F1527       F  0.09750415  0.87898216  0.31751165    -0.19300
F1528       F  0.15011391  0.92648591  0.42289440    -0.22700
F1529       F  0.18294632  0.91329039  0.40227519    -0.24100
F1530       F  0.16018963  0.88582430  0.42202762    -0.18100
F1531       F  0.12773003  0.00296331  0.41810837    -0.20600
F1532       F  0.13124255  0.02863136  0.38835346    -0.21800
F1533       F  0.16308586  0.02454571  0.41308418    -0.19000
F1534       F  0.20571069  0.93791875  0.33437106    -0.19100
F1535       F  0.16612649  0.92609053  0.32853827    -0.22900
F1536       F  0.18843309  0.90926578  0.35698624    -0.24500
C1537       C  0.91825541  0.85365432  0.59740730    -0.11300
C1538       C  0.93670329  0.85889132  0.61344833     0.11300
C1539       C  0.93193749  0.87631270  0.63093440    -0.03100
C1540       C  0.90805724  0.88706144  0.63242641    -0.05800
C1541       C  0.88878973  0.88059607  0.61733415    -0.16600
C1542       C  0.89413298  0.86394125  0.59912533     0.02300
C1543       C  0.96051829  0.84490333  0.61231216     0.12300
C1544       C  0.95178637  0.88292668  0.64833787     0.62900
H1545       H  0.90394623  0.89974381  0.64622279     0.12300
C1546       C  0.87475316  0.85677631  0.58156322     0.55000
H1547       H  0.92266579  0.84049943  0.58403354     0.08100
C1548       C  0.96294273  0.82078917  0.62196307    -0.05700
C1549       C  0.98682952  0.80998936  0.62314562    -0.06500
C1550       C  0.00794273  0.82272573  0.61525765    -0.16100
C1551       C  0.00530272  0.84607688  0.60432594    -0.01600
C1552       C  0.98133768  0.85669837  0.60271671    -0.09200
C1553       C  0.94054312  0.80690729  0.63152139     0.65100
H1554       H  0.98942641  0.79205187  0.63133627     0.10500
C1555       C  0.02774258  0.85969122  0.59469865     0.63500
H1556       H  0.97881171  0.87488432  0.59498345     0.07900
F1557       F  0.85736081  0.84075588  0.59094718    -0.19600
F1558       F  0.88540181  0.84476773  0.56316175    -0.15800
F1559       F  0.86297947  0.87804479  0.57372333    -0.19300
F1560       F  0.97208332  0.89369966  0.63771571    -0.22700
F1561       F  0.95954085  0.86161570  0.65956632    -0.24100
F1562       F  0.94296964  0.89972223  0.66430689    -0.18100
F1563       F  0.02078190  0.88095221  0.58291925    -0.20600
F1564       F  0.04048989  0.84404423  0.58002781    -0.21800
F1565       F  0.04356068  0.86685077  0.61198867    -0.19000
F1566       F  0.94732228  0.78417761  0.64092133    -0.19100
F1567       F  0.92350926  0.80226883  0.61446528    -0.22900
F1568       F  0.92914806  0.82106095  0.64818496    -0.24500
C1569       C  0.12657746  0.92214597  0.63061029    -0.11300
C1570       C  0.14383785  0.92559957  0.61313640     0.11300
C1571       C  0.15023376  0.90531770  0.59889610    -0.03100
C1572       C  0.13855860  0.88206534  0.60249707    -0.05800
C1573       C  0.12142840  0.87836681  0.62025408    -0.16600
C1574       C  0.11532890  0.89886872  0.63468934     0.02300
C1575       C  0.15677900  0.95008485  0.61230135     0.12300
C1576       C  0.16981371  0.90805131  0.58048164     0.62900
H1577       H  0.14331322  0.86630501  0.59179943     0.12300
C1578       C  0.09819048  0.89626585  0.65510223     0.55000
H1579       H  0.12260474  0.93791898  0.64156500     0.08100
C1580       C  0.14535304  0.97169669  0.60307020    -0.05700
C1581       C  0.15687301  0.99505881  0.60646220    -0.06500
C1582       C  0.17885403  0.99732192  0.61921662    -0.16100
C1583       C  0.19034824  0.97567078  0.62832241    -0.01600
C1584       C  0.17919396  0.95228727  0.62441114    -0.09200
C1585       C  0.12050228  0.97023886  0.59073788     0.65100
H1586       H  0.14815716  0.01195821  0.60012396     0.10500
C1587       C  0.21315451  0.97747599  0.64354769     0.63500
H1588       H  0.18710681  0.93557051  0.63189694     0.07900
F1589       F  0.07412673  0.89105272  0.64804536    -0.19600
F1590       F  0.09723877  0.91797011  0.66788998    -0.15800
F1591       F  0.10673823  0.87730625  0.66902034    -0.19300
F1592       F  0.19258996  0.91413873  0.59000933    -0.22700
F1593       F  0.16289363  0.92671204  0.56560615    -0.24100
F1594       F  0.17285467  0.88614948  0.56825582    -0.18100
F1595       F  0.22061541  0.95428106  0.65148642    -0.20600
F1596       F  0.20769482  0.99238997  0.66203331    -0.21800
F1597       F  0.23291955  0.98774436  0.63175228    -0.19000
F1598       F  0.11361158  0.99313725  0.58175716    -0.19100
F1599       F  0.10199071  0.96274582  0.60552924    -0.22900
F1600       F  0.12199720  0.95323227  0.57318490    -0.24500
C1601       C  0.11890838  0.77920312  0.51608830    -0.11300
C1602       C  0.09595094  0.78048878  0.50474240     0.11300
C1603       C  0.07348381  0.78038624  0.51736954    -0.03100
C1604       C  0.07483880  0.78119374  0.54117163    -0.05800
C1605       C  0.09785839  0.78095981  0.55266156    -0.16600
C1606       C  0.12030706  0.77886573  0.53989942     0.02300
C1607       C  0.09601095  0.78098746  0.47954729     0.12300
C1608       C  0.04825175  0.77873430  0.50569363     0.62900
H1609       H  0.05781319  0.78193413  0.55104447     0.12300
C1610       C  0.14552937  0.77496962  0.55119081     0.55000
H1611       H  0.13580683  0.77834248  0.50603640     0.08100
C1612       C  0.09784332  0.80361913  0.46724261    -0.05700
C1613       C  0.09708915  0.80269034  0.44342952    -0.06500
C1614       C  0.09479380  0.77994098  0.43165679    -0.16100
C1615       C  0.09390324  0.75721018  0.44404510    -0.01600
C1616       C  0.09454550  0.75820166  0.46785821    -0.09200
C1617       C  0.10106615  0.82855359  0.47924767     0.65100
H1618       H  0.09825683  0.81983170  0.43374881     0.10500
C1619       C  0.09302582  0.73196112  0.43226715     0.63500
H1620       H  0.09369284  0.74112519  0.47765799     0.07900
F1621       F  0.15288379  0.79662723  0.56208798    -0.19600
F1622       F  0.16388941  0.76872807  0.53567093    -0.15800
F1623       F  0.14395967  0.75564910  0.56668155    -0.19300
F1624       F  0.04687737  0.75667588  0.49352508    -0.22700
F1625       F  0.04507999  0.79863804  0.49108932    -0.24100
F1626       F  0.02872383  0.77902109  0.52103566    -0.18100
F1627       F  0.09593746  0.71238805  0.44734686    -0.20600
F1628       F  0.11206133  0.73034653  0.41649401    -0.21800
F1629       F  0.07023857  0.72902334  0.42159398    -0.19000
F1630       F  0.10162095  0.84834984  0.46418595    -0.19100
F1631       F  0.12327800  0.82849374  0.49117575    -0.22900
F1632       F  0.08155740  0.83259655  0.49412109    -0.24500
C1633       C  0.00802494  0.73829101  0.71276891    -0.11300
C1634       C  0.01053918  0.75296854  0.73230721     0.11300
C1635       C  0.02883059  0.77201190  0.73296565    -0.03100
C1636       C  0.04309379  0.77656660  0.71351370    -0.05800
C1637       C  0.03923751  0.76352799  0.69303304    -0.16600
C1638       C  0.02178830  0.74335999  0.69287767     0.02300
C1639       C  0.99222597  0.75012219  0.75110047     0.12300
C1640       C  0.03269812  0.78818249  0.75390081     0.62900
H1641       H  0.05693718  0.79126683  0.71409793     0.12300
C1642       C  0.01683454  0.72767707  0.67191340     0.55000
H1643       H  0.99420124  0.72353283  0.71294947     0.08100
C1644       C  0.96849905  0.76179020  0.75013082    -0.05700
C1645       C  0.95453968  0.76407631  0.77015741    -0.06500
C1646       C  0.96376718  0.75577853  0.79115374    -0.16100
C1647       C  0.98644198  0.74181894  0.79160946    -0.01600
C1648       C  0.00008019  0.73892129  0.77132396    -0.09200
C1649       C  0.95857366  0.77300037  0.72827660     0.65100
H1650       H  0.93685707  0.77395574  0.76981258     0.10500
C1651       C  0.99714705  0.73137487  0.81341773     0.63500
H1652       H  0.01801188  0.72950377  0.77139985     0.07900
F1653       F  0.99970507  0.70883528  0.67598502    -0.19600
F1654       F  0.03878371  0.71649069  0.66474467    -0.15800
F1655       F  0.00726595  0.74263388  0.65490471    -0.19300
F1656       F  0.04107941  0.77355229  0.77159785    -0.22700
F1657       F  0.01047662  0.79958375  0.76000166    -0.24100
F1658       F  0.05017244  0.80683719  0.75033130    -0.18100
F1659       F  0.01952747  0.71892310  0.80989574    -0.20600
F1660       F  0.98048327  0.71457354  0.82276007    -0.21800
F1661       F  0.00156433  0.75059407  0.82854570    -0.19000
F1662       F  0.93556205  0.78440577  0.73128264    -0.19100
F1663       F  0.95575663  0.75436664  0.71225889    -0.22900
F1664       F  0.97500620  0.79081185  0.72019212    -0.24500
C1665       C  0.19738858  0.82825826  0.76632054    -0.11300
C1666       C  0.17280522  0.82658667  0.75815623     0.11300
C1667       C  0.15265242  0.83472167  0.77187483    -0.03100
C1668       C  0.15802914  0.84652200  0.79247080    -0.05800
C1669       C  0.18264580  0.84999343  0.79990640    -0.16600
C1670       C  0.20273620  0.83987212  0.78720934     0.02300
C1671       C  0.16844104  0.81932734  0.73424804     0.12300
C1672       C  0.12557351  0.83162468  0.76453889     0.62900
H1673       H  0.14295459  0.85386244  0.80277093     0.12300
C1674       C  0.22960244  0.84223974  0.79517202     0.55000
H1675       H  0.21239729  0.82136843  0.75571763     0.08100
C1676       C  0.17030181  0.83729271  0.71671579    -0.05700
C1677       C  0.15965682  0.83177371  0.69558216    -0.06500
C1678       C  0.14706923  0.80923425  0.69175879    -0.16100
C1679       C  0.14664817  0.79063077  0.70874071    -0.01600
C1680       C  0.15808775  0.79576656  0.72967110    -0.09200
C1681       C  0.18226487  0.86268370  0.72070625     0.65100
H1682       H  0.15969268  0.84566462  0.68225788     0.10500
C1683       C  0.13245611  0.76639805  0.70532736     0.63500
H1684       H  0.15707895  0.78228663  0.74329115     0.07900
F1685       F  0.23552447  0.86712475  0.79859747    -0.19600
F1686       F  0.24628286  0.83250638  0.77956244    -0.15800
F1687       F  0.23265577  0.82933203  0.81522652    -0.19300
F1688       F  0.11993615  0.80646926  0.76282487    -0.22700
F1689       F  0.12169125  0.84297440  0.74383833    -0.24100
F1690       F  0.10911042  0.84220535  0.77988961    -0.18100
F1691       F  0.13538402  0.75028049  0.72344265    -0.20600
F1692       F  0.14101774  0.75440716  0.68613259    -0.21800
F1693       F  0.10726524  0.77151090  0.70287356    -0.19000
F1694       F  0.18141742  0.87755519  0.70157445    -0.19100
F1695       F  0.20705640  0.85954115  0.72662484    -0.22900
F1696       F  0.16993859  0.87519672  0.73789484    -0.24500
C1697       C  0.82782664  0.13818157  0.24115845    -0.11300
C1698       C  0.82911955  0.16415723  0.23871262     0.11300
C1699       C  0.82289827  0.17530030  0.21786226    -0.03100
C1700       C  0.81813714  0.15965742  0.19921680    -0.05800
C1701       C  0.81895111  0.13335608  0.20104264    -0.16600
C1702       C  0.82226763  0.12242693  0.22285600     0.02300
C1703       C  0.83982272  0.17840071  0.25782703     0.12300
C1704       C  0.82100471  0.20350587  0.21555599     0.62900
H1705       H  0.81466774  0.16802777  0.18286240     0.12300
C1706       C  0.82023133  0.09444958  0.22729835     0.55000
H1707       H  0.83227846  0.13023620  0.25752325     0.08100
C1708       C  0.82777451  0.18009125  0.27906194    -0.05700
C1709       C  0.84222822  0.18555205  0.29823022    -0.06500
C1710       C  0.86813727  0.18952358  0.29670456    -0.16100
C1711       C  0.87936757  0.19138080  0.27497660    -0.01600
C1712       C  0.86503352  0.18510726  0.25595109    -0.09200
C1713       C  0.80010197  0.17541719  0.28256758     0.65100
H1714       H  0.83332910  0.18514488  0.31469323     0.10500
C1715       C  0.90645976  0.19905120  0.27154077     0.63500
H1716       H  0.87400853  0.18358327  0.23957750     0.07900
F1717       F  0.81883470  0.08925546  0.25020473    -0.19600
F1718       F  0.84099937  0.08217363  0.21883466    -0.15800
F1719       F  0.79879404  0.08508947  0.21734110    -0.19300
F1720       F  0.84409634  0.21439548  0.21894055    -0.22700
F1721       F  0.80440520  0.21267942  0.23147737    -0.24100
F1722       F  0.81251111  0.21047207  0.19436759    -0.18100
F1723       F  0.92216584  0.17914070  0.27619251    -0.20600
F1724       F  0.91228178  0.21901621  0.28548656    -0.21800
F1725       F  0.91081173  0.20649181  0.24947218    -0.19000
F1726       F  0.78950100  0.19620138  0.29273630    -0.19100
F1727       F  0.79699233  0.15499903  0.29661747    -0.22900
F1728       F  0.78737861  0.17099603  0.26262287    -0.24500
C1729       C  0.00056292  0.22027514  0.22362468    -0.11300
C1730       C  0.01306733  0.23511126  0.23952216     0.11300
C1731       C  0.03626351  0.24619206  0.23381583    -0.03100
C1732       C  0.04650017  0.24143567  0.21223948    -0.05800
C1733       C  0.03452883  0.22545948  0.19684046    -0.16600
C1734       C  0.01095172  0.21511503  0.20235306     0.02300
C1735       C  0.00296830  0.23510201  0.26288148     0.12300
C1736       C  0.05039037  0.26228467  0.25066861     0.62900
H1737       H  0.06458483  0.24898572  0.20771157     0.12300
C1738       C  0.99698713  0.19833695  0.18594450     0.55000
H1739       H  0.98311838  0.21158415  0.22854084     0.08100
C1740       C  0.98139100  0.24886381  0.26914723    -0.05700
C1741       C  0.97019973  0.24396453  0.29023309    -0.06500
C1742       C  0.97946831  0.22521423  0.30451888    -0.16100
C1743       C  0.00187629  0.21250316  0.29882133    -0.01600
C1744       C  0.01323866  0.21772251  0.27798700    -0.09200
C1745       C  0.96926423  0.26733772  0.25307324     0.65100
H1746       H  0.95300188  0.25335126  0.29491913     0.10500
C1747       C  0.01363662  0.19329812  0.31452910     0.63500
H1748       H  0.02952683  0.20715764  0.27270498     0.07900
F1749       F  0.97302997  0.19308604  0.19337390    -0.19600
F1750       F  0.00958434  0.17591688  0.18334138    -0.15800
F1751       F  0.99511958  0.21010939  0.16524688    -0.19300
F1752       F  0.05739535  0.24810169  0.26913640    -0.22700
F1753       F  0.03536856  0.28176253  0.25791029    -0.24100
F1754       F  0.07178328  0.27241161  0.24126816    -0.18100
F1755       F  0.99910263  0.17197333  0.31537704    -0.20600
F1756       F  0.01579337  0.20327908  0.33601892    -0.21800
F1757       F  0.03729423  0.18636037  0.30737437    -0.19000
F1758       F  0.95092609  0.28134493  0.26373546    -0.19100
F1759       F  0.95836974  0.25457282  0.23529987    -0.22900
F1760       F  0.98693295  0.28367423  0.24465595    -0.24500
C1761       C  0.02730514  0.12615179  0.38267300    -0.11300
C1762       C  0.04803922  0.14198587  0.38444472     0.11300
C1763       C  0.04426917  0.16814160  0.38612264    -0.03100
C1764       C  0.01982541  0.17767712  0.38435106    -0.05800
C1765       C  0.99909647  0.16205052  0.38048897    -0.16600
C1766       C  0.00274728  0.13559414  0.38114786     0.02300
C1767       C  0.07340133  0.13105234  0.38110268     0.12300
C1768       C  0.06609596  0.18606993  0.38869683     0.62900
H1769       H  0.01708157  0.19773685  0.38437998     0.12300
C1770       C  0.98126355  0.11705803  0.37985615     0.55000
H1771       H  0.03062275  0.10621602  0.38125447     0.08100
C1772       C  0.08658437  0.11789224  0.39816022    -0.05700
C1773       C  0.11071310  0.10851317  0.39321104    -0.06500
C1774       C  0.12163180  0.11184704  0.37182121    -0.16100
C1775       C  0.10840044  0.12526405  0.35493326    -0.01600
C1776       C  0.08425140  0.13403173  0.35974743    -0.09200
C1777       C  0.07518639  0.11382975  0.42135437     0.65100
H1778       H  0.12114902  0.09831612  0.40590514     0.10500
C1779       C  0.12019627  0.13148456  0.33226547     0.63500
H1780       H  0.07365550  0.14383371  0.34689554     0.07900
F1781       F  0.96215173  0.12445148  0.39415732    -0.19600
F1782       F  0.98867311  0.09330979  0.38640507    -0.15800
F1783       F  0.97246115  0.11548934  0.35791522    -0.19300
F1784       F  0.08024723  0.18621925  0.36916011    -0.22700
F1785       F  0.08097542  0.17877707  0.40662038    -0.24100
F1786       F  0.05812768  0.21031143  0.39279209    -0.18100
F1787       F  0.12468654  0.10981084  0.32016814    -0.20600
F1788       F  0.14242054  0.14402245  0.33580011    -0.21800
F1789       F  0.10499230  0.14672338  0.31925250    -0.19000
F1790       F  0.09157028  0.10174630  0.43580852    -0.19100
F1791       F  0.05392218  0.09934795  0.41946233    -0.22900
F1792       F  0.06889686  0.13658163  0.43094293    -0.24500
C1793       C  0.86518387  0.02564467  0.38245532    -0.11300
C1794       C  0.84805837  0.04545246  0.38149027     0.11300
C1795       C  0.82233953  0.04041130  0.37871382    -0.03100
C1796       C  0.81466505  0.01540026  0.37684087    -0.05800
C1797       C  0.83192429  0.99547882  0.37556855    -0.16600
C1798       C  0.85774906  0.00063974  0.37916816     0.02300
C1799       C  0.85821255  0.07101316  0.37884304     0.12300
C1800       C  0.80324862  0.06136508  0.37614396     0.62900
H1801       H  0.79501085  0.01150681  0.37459050     0.12300
C1802       C  0.87773887  0.98040749  0.37881049     0.55000
H1803       H  0.88481640  0.03019422  0.38411503     0.08100
C1804       C  0.86551247  0.08623624  0.39728291    -0.05700
C1805       C  0.87600558  0.10986294  0.39270139    -0.06500
C1806       C  0.87958445  0.11818325  0.37041787    -0.16100
C1807       C  0.87157854  0.10308943  0.35205268    -0.01600
C1808       C  0.86150742  0.07949049  0.35667709    -0.09200
C1809       C  0.86278799  0.07732382  0.42151283     0.65100
H1810       H  0.88202974  0.12178548  0.40645198     0.10500
C1811       C  0.87254632  0.11217038  0.32770010     0.63500
H1812       H  0.85593136  0.06731155  0.34291631     0.07900
F1813       F  0.87085013  0.96082826  0.39271156    -0.19600
F1814       F  0.90055003  0.98926731  0.38640799    -0.15800
F1815       F  0.88108935  0.97179183  0.35695551    -0.19300
F1816       F  0.80792679  0.07463395  0.35656272    -0.22700
F1817       F  0.80450865  0.07747787  0.39437204    -0.24100
F1818       F  0.77907450  0.05229389  0.37488010    -0.18100
F1819       F  0.89706235  0.11437197  0.32066129    -0.20600
F1820       F  0.86075337  0.13513037  0.32603132    -0.21800
F1821       F  0.86060899  0.09584529  0.31307279    -0.19000
F1822       F  0.86975391  0.09560183  0.43687188    -0.19100
F1823       F  0.87774284  0.05657253  0.42493995    -0.22900
F1824       F  0.83825636  0.07097490  0.42589373    -0.24500
C1825       C  0.02513576  0.13570062  0.60463719    -0.11300
C1826       C  0.04722465  0.14804577  0.61062537     0.11300
C1827       C  0.04623651  0.17333578  0.61777127    -0.03100
C1828       C  0.02271899  0.18460719  0.62087960    -0.05800
C1829       C  0.00050271  0.17132406  0.61718419    -0.16600
C1830       C  0.00162920  0.14694036  0.60765773     0.02300
C1831       C  0.07072380  0.13330221  0.61172705     0.12300
C1832       C  0.06985559  0.18796562  0.62299501     0.62900
H1833       H  0.02149524  0.20341837  0.62762018     0.12300
C1834       C  0.97897959  0.13183945  0.60041687     0.55000
H1835       H  0.02623132  0.11664184  0.59839362     0.08100
C1836       C  0.07592521  0.11770707  0.63047596    -0.05700
C1837       C  0.09951881  0.10635329  0.63196021    -0.06500
C1838       C  0.11831032  0.11083727  0.61588874    -0.16100
C1839       C  0.11263316  0.12544918  0.59648136    -0.01600
C1840       C  0.08859847  0.13609213  0.59458866    -0.09200
C1841       C  0.05698718  0.11387212  0.64933441     0.65100
H1842       H  0.10398390  0.09506764  0.64660158     0.10500
C1843       C  0.13171165  0.13009232  0.57794800     0.63500
H1844       H  0.08393785  0.14772046  0.58020874     0.07900
F1845       F  0.97705766  0.11084217  0.61392217    -0.19600
F1846       F  0.98205680  0.12424980  0.57820776    -0.15800
F1847       F  0.95682998  0.14507504  0.60164167    -0.19300
F1848       F  0.08435565  0.18976483  0.60373021    -0.22700
F1849       F  0.08338825  0.17602652  0.63973528    -0.24100
F1850       F  0.06458900  0.21200807  0.63034464    -0.18100
F1851       F  0.12075242  0.14027208  0.55884625    -0.20600
F1852       F  0.14297150  0.10779469  0.57175383    -0.21800
F1853       F  0.14969326  0.14666677  0.58547951    -0.19000
F1854       F  0.06650226  0.09930887  0.66666528    -0.19100
F1855       F  0.03603955  0.10199307  0.64091749    -0.22900
F1856       F  0.05009139  0.13670986  0.65843257    -0.24500
C1857       C  0.88576008  0.07166100  0.63239314    -0.11300
C1858       C  0.86758047  0.06877099  0.61560236     0.11300
C1859       C  0.86019466  0.08969023  0.60259697    -0.03100
C1860       C  0.87140947  0.11303710  0.60702242    -0.05800
C1861       C  0.88923537  0.11629853  0.62436046    -0.16600
C1862       C  0.89683829  0.09493745  0.63714231     0.02300
C1863       C  0.85447242  0.04427463  0.61456222     0.12300
C1864       C  0.84019375  0.08745817  0.58446898     0.62900
H1865       H  0.86569473  0.12918363  0.59727374     0.12300
C1866       C  0.91566615  0.09635260  0.65640292     0.55000
H1867       H  0.89053356  0.05539132  0.64240670     0.08100
C1868       C  0.86549427  0.02257482  0.60500498    -0.05700
C1869       C  0.85357472  0.99930603  0.60809949    -0.06500
C1870       C  0.83122647  0.99722669  0.62041318    -0.16100
C1871       C  0.82005721  0.01906888  0.62958677    -0.01600
C1872       C  0.83195136  0.04222728  0.62648484    -0.09200
C1873       C  0.89001738  0.02391694  0.59214844     0.65100
H1874       H  0.86204514  0.98236400  0.60155148     0.10500
C1875       C  0.79642470  0.01777890  0.64367775     0.63500
H1876       H  0.82427411  0.05896021  0.63417788     0.07900
F1877       F  0.93864163  0.10384906  0.64817150    -0.19600
F1878       F  0.91909552  0.07344948  0.66687620    -0.15800
F1879       F  0.90740268  0.11303632  0.67268717    -0.19300
F1880       F  0.81773046  0.08054101  0.59410885    -0.22700
F1881       F  0.84712656  0.06962417  0.56873550    -0.24100
F1882       F  0.83647424  0.10983343  0.57318803    -0.18100
F1883       F  0.80005736  0.00180765  0.66176772    -0.20600
F1884       F  0.77699076  0.00914480  0.63042794    -0.21800
F1885       F  0.78962045  0.04094540  0.65221111    -0.19000
F1886       F  0.89660807  0.00096726  0.58302879    -0.19100
F1887       F  0.90898900  0.03142938  0.60646273    -0.22900
F1888       F  0.88799670  0.04086148  0.57462317    -0.24500
C1889       C  0.91058073  0.18811557  0.47416377    -0.11300
C1890       C  0.91660505  0.21005359  0.48588510     0.11300
C1891       C  0.92269394  0.23210770  0.47391059    -0.03100
C1892       C  0.92122984  0.23172070  0.45023847    -0.05800
C1893       C  0.91389808  0.21012927  0.43851675    -0.16600
C1894       C  0.90879836  0.18778442  0.45050723     0.02300
C1895       C  0.91577827  0.20950136  0.51079809     0.12300
C1896       C  0.93076775  0.25582608  0.48605950     0.62900
H1897       H  0.92570076  0.24835786  0.44062634     0.12300
C1898       C  0.90180475  0.16368140  0.43846789     0.55000
H1899       H  0.90669976  0.17136930  0.48383001     0.08100
C1900       C  0.89291883  0.21094460  0.52270725    -0.05700
C1901       C  0.89359843  0.21157867  0.54639342    -0.06500
C1902       C  0.91627356  0.21075071  0.55832186    -0.16100
C1903       C  0.93915817  0.20837495  0.54626663    -0.01600
C1904       C  0.93836092  0.20759267  0.52255825    -0.09200
C1905       C  0.86797924  0.21198634  0.51043520     0.65100
H1906       H  0.87631728  0.21306824  0.55583102     0.10500
C1907       C  0.96425667  0.20594122  0.55810554     0.63500
H1908       H  0.95544966  0.20582058  0.51287207     0.07900
F1909       F  0.87858236  0.16633710  0.42852146    -0.19600
F1910       F  0.90067491  0.14362465  0.45322055    -0.15800
F1911       F  0.91937089  0.15811585  0.42204095    -0.19300
F1912       F  0.95311229  0.25168388  0.49717622    -0.22700
F1913       F  0.91279810  0.26290772  0.50160763    -0.24100
F1914       F  0.93425012  0.27549987  0.47119585    -0.18100
F1915       F  0.98334444  0.20038267  0.54310579    -0.20600
F1916       F  0.96321314  0.18687304  0.57380587    -0.21800
F1917       F  0.97028607  0.22815506  0.56877325    -0.19000
F1918       F  0.84815179  0.21462149  0.52528449    -0.19100
F1919       F  0.86435250  0.19015649  0.49833241    -0.22900
F1920       F  0.86759763  0.23208077  0.49574700    -0.24500
C1921       C  0.00457244  0.25398886  0.71702176    -0.11300
C1922       C  0.99708640  0.24296656  0.73739654     0.11300
C1923       C  0.97402537  0.23014824  0.73858161    -0.03100
C1924       C  0.96050326  0.22644746  0.71856293    -0.05800
C1925       C  0.96950848  0.23468876  0.69753533    -0.16600
C1926       C  0.99131214  0.24981818  0.69678461     0.02300
C1927       C  0.01527173  0.24151167  0.75623779     0.12300
C1928       C  0.96436430  0.21932936  0.76067746     0.62900
H1929       H  0.94334132  0.21574176  0.71899392     0.12300
C1930       C  0.00151617  0.26019506  0.67476404     0.55000
H1931       H  0.02195418  0.26432745  0.71684916     0.08100
C1932       C  0.03409180  0.22289967  0.75634835    -0.05700
C1933       C  0.04738784  0.21875595  0.77638592    -0.06500
C1934       C  0.04235373  0.23229648  0.79628232    -0.16100
C1935       C  0.02537653  0.25278114  0.79538458    -0.01600
C1936       C  0.01204518  0.25698222  0.77516443    -0.09200
C1937       C  0.03943458  0.20674383  0.73568614     0.65100
H1938       H  0.06127807  0.20400855  0.77690702     0.10500
C1939       C  0.02066023  0.26967128  0.81557817     0.63500
H1940       H  0.99808087  0.27163058  0.77425028     0.07900
F1941       F  0.00662930  0.24081659  0.65993324    -0.19600
F1942       F  0.02338881  0.27352294  0.67802461    -0.15800
F1943       F  0.98418219  0.27621718  0.66520471    -0.19300
F1944       F  0.96085808  0.23834889  0.77621762    -0.22700
F1945       F  0.98133272  0.20225871  0.76924598    -0.24100
F1946       F  0.94173327  0.20719285  0.75787880    -0.18100
F1947       F  0.04257622  0.28162671  0.82149854    -0.20600
F1948       F  0.01213274  0.25576863  0.83364731    -0.21800
F1949       F  0.00295985  0.28788013  0.81094959    -0.19000
F1950       F  0.05795474  0.18921161  0.73981355    -0.19100
F1951       F  0.04736303  0.22162554  0.71800735    -0.22900
F1952       F  0.01808717  0.19404230  0.72927282    -0.24500
C1953       C  0.85629787  0.14703339  0.76870112    -0.11300
C1954       C  0.83679313  0.16168608  0.76018175     0.11300
C1955       C  0.81337141  0.16200401  0.77131127    -0.03100
C1956       C  0.81040248  0.14739002  0.79096580    -0.05800
C1957       C  0.82996102  0.13240753  0.79922224    -0.16600
C1958       C  0.85355477  0.13278638  0.78832371     0.02300
C1959       C  0.84183822  0.17476615  0.73862871     0.12300
C1960       C  0.79160730  0.17718984  0.76225105     0.62900
H1961       H  0.79256367  0.14689438  0.79960179     0.12300
C1962       C  0.87602615  0.11864670  0.79747306     0.55000
H1963       H  0.87382288  0.14660377  0.75952560     0.08100
C1964       C  0.85989031  0.19408703  0.73733613    -0.05700
C1965       C  0.87047879  0.19961595  0.71620586    -0.06500
C1966       C  0.86297956  0.18690861  0.69661943    -0.16100
C1967       C  0.84289641  0.16978958  0.69752622    -0.01600
C1968       C  0.83282905  0.16370184  0.71873488    -0.09200
C1969       C  0.86894867  0.20779736  0.75830409     0.65100
H1970       H  0.88579585  0.21278717  0.71503951     0.10500
C1971       C  0.83344456  0.15672216  0.67639923     0.63500
H1972       H  0.81935991  0.14869964  0.72011204     0.07900
F1973       F  0.89796232  0.12566509  0.78682332    -0.19600
F1974       F  0.87283347  0.09326602  0.79409312    -0.15800
F1975       F  0.87878958  0.12354452  0.82030782    -0.19300
F1976       F  0.78324623  0.16684421  0.74221304    -0.22700
F1977       F  0.79899630  0.20157889  0.75838401    -0.24100
F1978       F  0.77180847  0.17767912  0.77731323    -0.18100
F1979       F  0.85244028  0.14269558  0.66682483    -0.20600
F1980       F  0.82527252  0.17435502  0.66098014    -0.21800
F1981       F  0.81367005  0.14088430  0.68104767    -0.19000
F1982       F  0.88260880  0.22887790  0.75272363    -0.19100
F1983       F  0.88402040  0.19235180  0.77115091    -0.22900
F1984       F  0.84872900  0.21536649  0.77117606    -0.24500
C1985       C  0.30587159  0.15901603  0.64880657    -0.11300
C1986       C  0.32280068  0.15631339  0.63089801     0.11300
C1987       C  0.32016471  0.13629286  0.61542928    -0.03100
C1988       C  0.29916970  0.12068721  0.61738995    -0.05800
C1989       C  0.28075607  0.12519482  0.63377523    -0.16600
C1990       C  0.28437149  0.14411783  0.65019968     0.02300
C1991       C  0.34079760  0.17683405  0.62712330     0.12300
C1992       C  0.33906385  0.13193937  0.59667896     0.62900
H1993       H  0.29621181  0.10575636  0.60530876     0.12300
C1994       C  0.26507427  0.14942612  0.66837683     0.55000
H1995       H  0.30853681  0.17435670  0.66055402     0.08100
C1996       C  0.33326096  0.19903953  0.61608993    -0.05700
C1997       C  0.35054487  0.21851644  0.61405055    -0.06500
C1998       C  0.37473241  0.21700973  0.62331924    -0.16100
C1999       C  0.38238696  0.19447819  0.63409378    -0.01600
C2000       C  0.36510407  0.17465572  0.63571624    -0.09200
C2001       C  0.30681925  0.20248099  0.60702619     0.65100
H2002       H  0.34493018  0.23555224  0.60556354     0.10500
C2003       C  0.40813896  0.19148055  0.64452778     0.63500
H2004       H  0.37018805  0.15742053  0.64415941     0.07900
F2005       F  0.24433157  0.16056688  0.65873457    -0.19600
F2006       F  0.27429541  0.16538565  0.68482717    -0.15800
F2007       F  0.25804962  0.12738547  0.67880784    -0.19300
F2008       F  0.36209689  0.12653642  0.60606685    -0.22700
F2009       F  0.34118311  0.15304447  0.58333915    -0.24100
F2010       F  0.33226764  0.11217007  0.58284366    -0.18100
F2011       F  0.41074022  0.16877613  0.65552494    -0.20600
F2012       F  0.41220828  0.21027891  0.66019294    -0.21800
F2013       F  0.42617320  0.19255996  0.62781619    -0.19000
F2014       F  0.30395421  0.22504568  0.59585230    -0.19100
F2015       F  0.28989360  0.20207107  0.62466806    -0.22900
F2016       F  0.30106755  0.18354986  0.59197520    -0.24500
C2017       C  0.31921803  0.14007786  0.37542983    -0.11300
C2018       C  0.32184664  0.15559859  0.35648535     0.11300
C2019       C  0.30653636  0.15169763  0.33730855    -0.03100
C2020       C  0.28695684  0.13423678  0.33879016    -0.05800
C2021       C  0.28297036  0.12011492  0.35845273    -0.16600
C2022       C  0.30001859  0.12213570  0.37671290     0.02300
C2023       C  0.33904821  0.17733014  0.35801257     0.12300
C2024       C  0.31078846  0.16615565  0.31556096     0.62900
H2025       H  0.27420531  0.13184840  0.32476140     0.12300
C2026       C  0.29732986  0.10616542  0.39777168     0.55000
H2027       H  0.33167023  0.14297017  0.38962755     0.08100
C2028       C  0.33116154  0.20012421  0.36781700    -0.05700
C2029       C  0.34779264  0.22037363  0.36810057    -0.06500
C2030       C  0.37209504  0.21885188  0.35890663    -0.16100
C2031       C  0.38008328  0.19560439  0.34937774    -0.01600
C2032       C  0.36328764  0.17522845  0.34927420    -0.09200
C2033       C  0.30516296  0.20308615  0.37793235     0.65100
H2034       H  0.34166117  0.23774593  0.37569583     0.10500
C2035       C  0.40587237  0.19198614  0.33910196     0.63500
H2036       H  0.36880406  0.15739571  0.34212821     0.07900
F2037       F  0.27398007  0.10971176  0.40727991    -0.19600
F2038       F  0.31509489  0.11204189  0.41393656    -0.15800
F2039       F  0.30026189  0.08122943  0.39209009    -0.19300
F2040       F  0.33446520  0.16101021  0.30741296    -0.22700
F2041       F  0.30868839  0.19157851  0.31945690    -0.24100
F2042       F  0.29369909  0.15966773  0.29899936    -0.18100
F2043       F  0.40895463  0.16823128  0.33015092    -0.20600
F2044       F  0.42397400  0.19526138  0.35553334    -0.21800
F2045       F  0.40945207  0.20895287  0.32176224    -0.19000
F2046       F  0.30098332  0.22709434  0.38591883    -0.19100
F2047       F  0.30228063  0.18675457  0.39583210    -0.22900
F2048       F  0.28720326  0.19801032  0.36177595    -0.24500
C2049       C  0.39733144  0.27681627  0.46839149    -0.11300
C2050       C  0.42045489  0.28139694  0.47865083     0.11300
C2051       C  0.44195352  0.28531048  0.46521001    -0.03100
C2052       C  0.43923080  0.28581641  0.44156828    -0.05800
C2053       C  0.41583112  0.28242554  0.43131255    -0.16600
C2054       C  0.39455600  0.27729863  0.44480080     0.02300
C2055       C  0.42138689  0.28196267  0.50362554     0.12300
C2056       C  0.46754612  0.28879767  0.47584605     0.62900
H2057       H  0.45531133  0.28916606  0.43087345     0.12300
C2058       C  0.36919830  0.27174346  0.43437813     0.55000
H2059       H  0.38134209  0.27325778  0.47914157     0.08100
C2060       C  0.41437497  0.30353700  0.51597339    -0.05700
C2061       C  0.41501974  0.30254952  0.53967518    -0.06500
C2062       C  0.42191558  0.28066682  0.55121020    -0.16100
C2063       C  0.42837754  0.25887612  0.53879378    -0.01600
C2064       C  0.42809834  0.26000760  0.51504072    -0.09200
C2065       C  0.40555783  0.32720884  0.50416781     0.65100
H2066       H  0.40961139  0.31879288  0.54947738     0.10500
C2067       C  0.43437044  0.23428158  0.55044941     0.63500
H2068       H  0.43278914  0.24363201  0.50509060     0.07900
F2069       F  0.35972474  0.29304204  0.42426633    -0.19600
F2070       F  0.35210970  0.26385255  0.45041664    -0.15800
F2071       F  0.37151903  0.25299008  0.41836093    -0.19300
F2072       F  0.47405929  0.26752312  0.48774279    -0.22700
F2073       F  0.46721248  0.30897689  0.49048323    -0.24100
F2074       F  0.48581000  0.29306452  0.45973719    -0.18100
F2075       F  0.43717778  0.21488921  0.53510736    -0.20600
F2076       F  0.41520968  0.22799213  0.56507532    -0.21800
F2077       F  0.45642678  0.23646243  0.56244541    -0.19000
F2078       F  0.40107289  0.34643421  0.51934831    -0.19100
F2079       F  0.38358909  0.32247740  0.49265376    -0.22900
F2080       F  0.42342706  0.33528835  0.48898819    -0.24500
C2081       C  0.19935002  0.65804491  0.61143658    -0.11300
C2082       C  0.18255876  0.65434086  0.62924191     0.11300
C2083       C  0.18524204  0.63336017  0.64355342    -0.03100
C2084       C  0.20662087  0.61814040  0.64105722    -0.05800
C2085       C  0.22471841  0.62329598  0.62448929    -0.16600
C2086       C  0.22045640  0.64279756  0.60868085     0.02300
C2087       C  0.16336454  0.67389969  0.63277337     0.12300
C2088       C  0.16551742  0.62711604  0.66107480     0.62900
H2089       H  0.20975799  0.60261913  0.65245771     0.12300
C2090       C  0.23782946  0.64737886  0.58877030     0.55000
H2091       H  0.19630884  0.67379815  0.60025039     0.08100
C2092       C  0.16948034  0.69651890  0.64391989    -0.05700
C2093       C  0.15266291  0.71653271  0.64257836    -0.06500
C2094       C  0.13016918  0.71475692  0.63052071    -0.16100
C2095       C  0.12333774  0.69169267  0.62043475    -0.01600
C2096       C  0.14030476  0.67152534  0.62166748    -0.09200
C2097       C  0.19416406  0.70000194  0.65631828     0.65100
H2098       H  0.15756553  0.73433282  0.65008088     0.10500
C2099       C  0.09906025  0.68879187  0.60743982     0.63500
H2100       H  0.13627055  0.65409309  0.61307142     0.07900
F2101       F  0.26035218  0.65693306  0.59622459    -0.19600
F2102       F  0.22774955  0.66429701  0.57356553    -0.15800
F2103       F  0.24197538  0.62516084  0.57734956    -0.19300
F2104       F  0.14296545  0.62281762  0.65036103    -0.22700
F2105       F  0.16261422  0.64671362  0.67610652    -0.24100
F2106       F  0.17173919  0.60592226  0.67327574    -0.18100
F2107       F  0.09695228  0.66529393  0.59775286    -0.20600
F2108       F  0.09785153  0.70635702  0.59031410    -0.21800
F2109       F  0.07905237  0.69211030  0.62193463    -0.19000
F2110       F  0.19561563  0.72317248  0.66674651    -0.19100
F2111       F  0.21386481  0.69810888  0.64131535    -0.22900
F2112       F  0.19680177  0.68195241  0.67282851    -0.24500
C2113       C  0.37327625  0.41191096  0.59302990    -0.11300
C2114       C  0.37051020  0.42718688  0.61214094     0.11300
C2115       C  0.37884330  0.41861853  0.63346187    -0.03100
C2116       C  0.39022778  0.39501350  0.63484071    -0.05800
C2117       C  0.39193488  0.37891969  0.61604830    -0.16600
C2118       C  0.38359308  0.38764757  0.59457432     0.02300
C2119       C  0.35706738  0.45135151  0.61000083     0.12300
C2120       C  0.37433159  0.43368762  0.65494844     0.62900
H2121       H  0.39633219  0.38824297  0.65117546     0.12300
C2122       C  0.38547759  0.37174447  0.57333855     0.55000
H2123       H  0.36639845  0.41887168  0.57700226     0.08100
C2124       C  0.36979384  0.47417574  0.60671974    -0.05700
C2125       C  0.35672049  0.49666422  0.61041264    -0.06500
C2126       C  0.33122940  0.49683509  0.61620905    -0.16100
C2127       C  0.31782609  0.47390406  0.61648450    -0.01600
C2128       C  0.33120165  0.45143622  0.61358523    -0.09200
C2129       C  0.39697614  0.47461546  0.59940551     0.65100
H2130       H  0.36648610  0.51435370  0.60933787     0.10500
C2131       C  0.28988067  0.47286674  0.62082312     0.63500
H2132       H  0.32181999  0.43359228  0.61521024     0.07900
F2133       F  0.38028140  0.38546670  0.55405605    -0.19600
F2134       F  0.36854171  0.35227351  0.57431826    -0.15800
F2135       F  0.40943621  0.36228106  0.57127217    -0.19300
F2136       F  0.34892920  0.43627835  0.65852136    -0.22700
F2137       F  0.38491555  0.45714599  0.65313081    -0.24100
F2138       F  0.38449221  0.42217559  0.67378960    -0.18100
F2139       F  0.28110256  0.44852572  0.62147993    -0.20600
F2140       F  0.27732394  0.48522554  0.60371822    -0.21800
F2141       F  0.28438183  0.48399832  0.64130921    -0.19000
F2142       F  0.40563538  0.49880552  0.59661544    -0.19100
F2143       F  0.39939993  0.46223024  0.57897829    -0.22900
F2144       F  0.41184684  0.46291087  0.61530721    -0.24500
C2145       C  0.13939753  0.67068639  0.35739495    -0.11300
C2146       C  0.16471864  0.67433912  0.35236546     0.11300
C2147       C  0.17308340  0.69823074  0.34558965    -0.03100
C2148       C  0.15621190  0.71836751  0.34648764    -0.05800
C2149       C  0.13111179  0.71533619  0.35317782    -0.16600
C2150       C  0.12220061  0.69075999  0.35763344     0.02300
C2151       C  0.18259246  0.65345787  0.35616015     0.12300
C2152       C  0.19977167  0.70240707  0.33757118     0.62900
H2153       H  0.16275809  0.73691216  0.34231774     0.12300
C2154       C  0.09502413  0.68558419  0.36318955     0.55000
H2155       H  0.13343561  0.65199767  0.36189098     0.08100
C2156       C  0.19436270  0.65022407  0.37738257    -0.05700
C2157       C  0.21373535  0.63261015  0.37922787    -0.06500
C2158       C  0.22138528  0.61793947  0.36076257    -0.16100
C2159       C  0.20814152  0.61965460  0.34003251    -0.01600
C2160       C  0.18886613  0.63760632  0.33807768    -0.09200
C2161       C  0.18693308  0.66581662  0.39784390     0.65100
H2162       H  0.22388811  0.63088691  0.39498638     0.10500
C2163       C  0.21494924  0.60339951  0.31988686     0.63500
H2164       H  0.17913540  0.64008187  0.32218179     0.07900
F2165       F  0.09087538  0.66053102  0.36771617    -0.19600
F2166       F  0.08019379  0.69215285  0.34498267    -0.15800
F2167       F  0.08790891  0.69915299  0.38203514    -0.19300
F2168       F  0.20432780  0.68779699  0.31870404    -0.22700
F2169       F  0.21658200  0.69600084  0.35434039    -0.24100
F2170       F  0.20403613  0.72711552  0.33176174    -0.18100
F2171       F  0.20042118  0.60885853  0.30115416    -0.20600
F2172       F  0.21126418  0.57852607  0.32530995    -0.21800
F2173       F  0.23971512  0.60703341  0.31408747    -0.19000
F2174       F  0.20049995  0.65931677  0.41689077    -0.19100
F2175       F  0.16190945  0.66219878  0.40256960    -0.22900
F2176       F  0.19098545  0.69090903  0.39364449    -0.24500
C2177       C  0.36800942  0.41328950  0.38540506    -0.11300
C2178       C  0.37761037  0.43177477  0.37114008     0.11300
C2179       C  0.39916432  0.42663763  0.35813187    -0.03100
C2180       C  0.40750950  0.40167828  0.35653326    -0.05800
C2181       C  0.39596862  0.38228229  0.36882811    -0.16600
C2182       C  0.37752451  0.38874395  0.38519038     0.02300
C2183       C  0.36351681  0.45560011  0.36897184     0.12300
C2184       C  0.41345878  0.44754019  0.34655295     0.62900
H2185       H  0.42264787  0.39712746  0.34509874     0.12300
C2186       C  0.36791184  0.37023849  0.40258061     0.55000
H2187       H  0.35231875  0.41800750  0.39619237     0.08100
C2188       C  0.34494506  0.45863140  0.35207550    -0.05700
C2189       C  0.33197987  0.48147267  0.35087668    -0.06500
C2190       C  0.33664691  0.50092217  0.36618232    -0.16100
C2191       C  0.35472062  0.49775270  0.38339810    -0.01600
C2192       C  0.36792951  0.47492637  0.38456236    -0.09200
C2193       C  0.33865999  0.43775053  0.33551266     0.65100
H2194       H  0.31820835  0.48451410  0.33772565     0.10500
C2195       C  0.35995849  0.51848254  0.40026064     0.63500
H2196       H  0.38187582  0.47198817  0.39756406     0.07900
F2197       F  0.35055228  0.35442812  0.39283944    -0.19600
F2198       F  0.35652759  0.38240108  0.42053213    -0.15800
F2199       F  0.38757337  0.35638143  0.41124213    -0.19300
F2200       F  0.42200837  0.46411698  0.36276321    -0.22700
F2201       F  0.39828563  0.46031448  0.33158924    -0.24100
F2202       F  0.43389630  0.43853505  0.33469947    -0.18100
F2203       F  0.37864698  0.51191468  0.41532747    -0.20600
F2204       F  0.33850286  0.52363617  0.41245582    -0.21800
F2205       F  0.36740901  0.53985933  0.38899161    -0.19000
F2206       F  0.31997303  0.44472125  0.32058623    -0.19100
F2207       F  0.33054502  0.41694597  0.34723486    -0.22900
F2208       F  0.35946164  0.43133525  0.32293651    -0.24500
C2209       C  0.27289620  0.57667667  0.47175266    -0.11300
C2210       C  0.29603210  0.58073245  0.48223298     0.11300
C2211       C  0.31774245  0.58388457  0.46892360    -0.03100
C2212       C  0.31526000  0.58422289  0.44529928    -0.05800
C2213       C  0.29196941  0.58116877  0.43469881    -0.16600
C2214       C  0.27033266  0.57706302  0.44807538     0.02300
C2215       C  0.29671450  0.58261074  0.50723075     0.12300
C2216       C  0.34337601  0.58691763  0.47961110     0.62900
H2217       H  0.33163082  0.58689720  0.43481220     0.12300
C2218       C  0.24453408  0.57428037  0.43764820     0.55000
H2219       H  0.25670231  0.57381270  0.48241567     0.08100
C2220       C  0.28909635  0.60465233  0.51865418    -0.05700
C2221       C  0.28980130  0.60505869  0.54240950    -0.06500
C2222       C  0.29754205  0.58413106  0.55485508    -0.16100
C2223       C  0.30623811  0.56246971  0.54336102    -0.01600
C2224       C  0.30522963  0.56197540  0.51961290    -0.09200
C2225       C  0.27989645  0.62747646  0.50580832     0.65100
H2226       H  0.28351884  0.62149992  0.55150679     0.10500
C2227       C  0.31733770  0.54032886  0.55597724     0.63500
H2228       H  0.31095788  0.54536238  0.51046291     0.07900
F2229       F  0.23955272  0.59446515  0.42374666    -0.19600
F2230       F  0.22597136  0.57331560  0.45393274    -0.15800
F2231       F  0.24337488  0.55241468  0.42518861    -0.19300
F2232       F  0.34989497  0.56515447  0.49075339    -0.22700
F2233       F  0.34314148  0.60653274  0.49487187    -0.24100
F2234       F  0.36161531  0.59178774  0.46361721    -0.18100
F2235       F  0.32875102  0.52352884  0.54140813    -0.20600
F2236       F  0.29880155  0.52772519  0.56752233    -0.21800
F2237       F  0.33521082  0.54860751  0.57113982    -0.19000
F2238       F  0.27574986  0.64763668  0.52005021    -0.19100
F2239       F  0.25766357  0.62197561  0.49501765    -0.22900
F2240       F  0.29741107  0.63457897  0.48988689    -0.24500
C2241       C  0.64325563  0.81791149  0.62817965    -0.11300
C2242       C  0.66846029  0.81400479  0.63358354     0.11300
C2243       C  0.67636404  0.79032690  0.64142518    -0.03100
C2244       C  0.65903053  0.77065807  0.64175520    -0.05800
C2245       C  0.63397141  0.77383970  0.63489258    -0.16600
C2246       C  0.62562601  0.79828813  0.62895577     0.02300
C2247       C  0.68647819  0.83486054  0.63070004     0.12300
C2248       C  0.70306681  0.78582708  0.64933158     0.62900
H2249       H  0.66517923  0.75233655  0.64721319     0.12300
C2250       C  0.59854570  0.80386006  0.62320039     0.55000
H2251       H  0.63764455  0.83649628  0.62295285     0.08100
C2252       C  0.69877129  0.83910129  0.60984538    -0.05700
C2253       C  0.71828731  0.85667512  0.60914447    -0.06500
C2254       C  0.72567979  0.86994123  0.62851002    -0.16100
C2255       C  0.71269068  0.86645536  0.64908214    -0.01600
C2256       C  0.69286364  0.84919445  0.64972062    -0.09200
C2257       C  0.69172270  0.82464896  0.58863356     0.65100
H2258       H  0.72862811  0.85955497  0.59361856     0.10500
C2259       C  0.72075238  0.87984849  0.67046804     0.63500
H2260       H  0.68301210  0.84574199  0.66540056     0.07900
F2261       F  0.59124059  0.78983426  0.60468441    -0.19600
F2262       F  0.59483508  0.82884348  0.61801977    -0.15800
F2263       F  0.58356419  0.79823801  0.64155822    -0.19300
F2264       F  0.70818143  0.80090773  0.66775601    -0.22700
F2265       F  0.71972985  0.79128047  0.63218497    -0.24100
F2266       F  0.70696730  0.76123954  0.65577887    -0.18100
F2267       F  0.70636859  0.87302993  0.68889869    -0.20600
F2268       F  0.71840825  0.90536100  0.66748851    -0.21800
F2269       F  0.74540949  0.87412403  0.67525488    -0.19000
F2270       F  0.70621483  0.83149986  0.57026762    -0.19100
F2271       F  0.66700197  0.82926869  0.58328474    -0.22900
F2272       F  0.69492023  0.79927318  0.59208668    -0.24500
C2273       C  0.42599309  0.62782925  0.64192148    -0.11300
C2274       C  0.43481666  0.63198048  0.61997118     0.11300
C2275       C  0.42087901  0.62325638  0.60120943    -0.03100
C2276       C  0.39718767  0.61256627  0.60511886    -0.05800
C2277       C  0.38791475  0.60931522  0.62713619    -0.16600
C2278       C  0.40272477  0.61660277  0.64592758     0.02300
C2279       C  0.45910435  0.64511637  0.61771477     0.12300
C2280       C  0.43113546  0.62498702  0.57733976     0.62900
H2281       H  0.38566901  0.60668483  0.59102858     0.12300
C2282       C  0.39357101  0.61371885  0.67011347     0.55000
H2283       H  0.43742737  0.63401739  0.65596566     0.08100
C2284       C  0.46102434  0.67148571  0.61955403    -0.05700
C2285       C  0.48493635  0.68234736  0.62127168    -0.06500
C2286       C  0.50667716  0.66759270  0.62166658    -0.16100
C2287       C  0.50467003  0.64137026  0.61792532    -0.01600
C2288       C  0.48082143  0.63056637  0.61670859    -0.09200
C2289       C  0.43787897  0.68789856  0.62109049     0.65100
H2290       H  0.48668962  0.70228917  0.62410091     0.10500
C2291       C  0.52695652  0.62388426  0.61580865     0.63500
H2292       H  0.47907839  0.61039921  0.61548451     0.07900
F2293       F  0.41046151  0.62319881  0.68563493    -0.19600
F2294       F  0.39005347  0.58869688  0.67502223    -0.15800
F2295       F  0.37129753  0.62647337  0.67282811    -0.19300
F2296       F  0.45320146  0.61160054  0.57585549    -0.22700
F2297       F  0.43573692  0.64964430  0.57179195    -0.24100
F2298       F  0.41463306  0.61528079  0.56159072    -0.18100
F2299       F  0.52268868  0.60665241  0.59875163    -0.20600
F2300       F  0.53022951  0.61116885  0.63594377    -0.21800
F2301       F  0.54872846  0.63637752  0.61042078    -0.19000
F2302       F  0.44387632  0.71307841  0.62126388    -0.19100
F2303       F  0.42496090  0.68261919  0.64074275    -0.22900
F2304       F  0.42244884  0.68355752  0.60277671    -0.24500
C2305       C  0.68550672  0.85317147  0.37310255    -0.11300
C2306       C  0.68512044  0.83571138  0.35538646     0.11300
C2307       C  0.70192592  0.83818711  0.33706972    -0.03100
C2308       C  0.72010839  0.85706453  0.33811656    -0.05800
C2309       C  0.72210957  0.87298369  0.35694532    -0.16600
C2310       C  0.70424502  0.87151347  0.37454048     0.02300
C2311       C  0.66867948  0.81361020  0.35775208     0.12300
C2312       C  0.70139269  0.82028424  0.31708555     0.62900
H2313       H  0.73400326  0.85855135  0.32486397     0.12300
C2314       C  0.70620045  0.88775141  0.39554265     0.55000
H2315       H  0.67209299  0.85104702  0.38667520     0.08100
C2316       C  0.67561123  0.79316960  0.37158810    -0.05700
C2317       C  0.65914657  0.77290701  0.37344572    -0.06500
C2318       C  0.63626348  0.77220366  0.36177008    -0.16100
C2319       C  0.62956373  0.79258463  0.34756613    -0.01600
C2320       C  0.64585896  0.81320420  0.34615155    -0.09200
C2321       C  0.70036928  0.79264649  0.38426677     0.65100
H2322       H  0.66406913  0.75732593  0.38425239     0.10500
C2323       C  0.60592239  0.79240200  0.33335425     0.63500
H2324       H  0.64101859  0.82921360  0.33583109     0.07900
F2325       F  0.72893071  0.88363693  0.40606479    -0.19600
F2326       F  0.68746331  0.88255656  0.41096680    -0.15800
F2327       F  0.70428658  0.91268257  0.38961094    -0.19300
F2328       F  0.67842464  0.82160309  0.30647395    -0.22700
F2329       F  0.70541227  0.79605001  0.32438037    -0.24100
F2330       F  0.71958790  0.82596755  0.30126745    -0.18100
F2331       F  0.58518520  0.79387994  0.34723005    -0.20600
F2332       F  0.60487810  0.77066780  0.32065070    -0.21800
F2333       F  0.60505792  0.81242621  0.31854782    -0.19000
F2334       F  0.70400329  0.77023633  0.39552126    -0.19100
F2335       F  0.70098540  0.81164528  0.40011907    -0.22900
F2336       F  0.71997102  0.79570414  0.36930990    -0.24500
C2337       C  0.42739814  0.62532809  0.35707391    -0.11300
C2338       C  0.43129310  0.64037710  0.37609267     0.11300
C2339       C  0.41170763  0.64417002  0.39177714    -0.03100
C2340       C  0.38862310  0.63228615  0.38785045    -0.05800
C2341       C  0.38477648  0.61681623  0.36888516    -0.16600
C2342       C  0.40467897  0.61301193  0.35328158     0.02300
C2343       C  0.45612472  0.65239781  0.37815560     0.12300
C2344       C  0.41501706  0.66111417  0.41216830     0.62900
H2345       H  0.37322554  0.63530172  0.39942660     0.12300
C2346       C  0.40214951  0.59655797  0.33238244     0.55000
H2347       H  0.44264112  0.62325194  0.34516181     0.08100
C2348       C  0.47767148  0.63846524  0.38408281    -0.05700
C2349       C  0.50126606  0.64958117  0.38137880    -0.06500
C2350       C  0.50387845  0.67383692  0.37263920    -0.16100
C2351       C  0.48220507  0.68805000  0.36735511    -0.01600
C2352       C  0.45860076  0.67701290  0.37039074    -0.09200
C2353       C  0.47577854  0.61163648  0.39237822     0.65100
H2354       H  0.51801934  0.63896081  0.38512439     0.10500
C2355       C  0.48393172  0.71392593  0.35689157     0.63500
H2356       H  0.44183959  0.68699008  0.36545474     0.07900
F2357       F  0.39891281  0.57191696  0.33884005    -0.19600
F2358       F  0.42317262  0.59753762  0.31877096    -0.15800
F2359       F  0.38199822  0.60429308  0.31951573    -0.19300
F2360       F  0.41794771  0.68555959  0.40507944    -0.22700
F2361       F  0.43588807  0.65397948  0.42434369    -0.24100
F2362       F  0.39458380  0.66017053  0.42650081    -0.18100
F2363       F  0.46064836  0.72348928  0.35140539    -0.20600
F2364       F  0.49791512  0.71272123  0.33726855    -0.21800
F2365       F  0.49505862  0.73030398  0.37192144    -0.19000
F2366       F  0.49869195  0.60246661  0.39942185    -0.19100
F2367       F  0.46719373  0.59633576  0.37521259    -0.22900
F2368       F  0.45944772  0.61034764  0.41044117    -0.24500
C2369       C  0.58127837  0.73166087  0.47463601    -0.11300
C2370       C  0.59198574  0.71167530  0.48648741     0.11300
C2371       C  0.60206044  0.69109769  0.47452129    -0.03100
C2372       C  0.60172504  0.69157904  0.45078769    -0.05800
C2373       C  0.59132141  0.71168698  0.43866263    -0.16600
C2374       C  0.58074902  0.73218356  0.45081647     0.02300
C2375       C  0.59203574  0.71248140  0.51154887     0.12300
C2376       C  0.61292173  0.66861128  0.48681265     0.62900
H2377       H  0.60939228  0.67590738  0.44145394     0.12300
C2378       C  0.56942033  0.75478975  0.43902804     0.55000
H2379       H  0.57330623  0.74691147  0.48433405     0.08100
C2380       C  0.61080855  0.72520983  0.52388656    -0.05700
C2381       C  0.61065485  0.72355345  0.54763677    -0.06500
C2382       C  0.59210723  0.71009598  0.55911680    -0.16100
C2383       C  0.57313759  0.69772311  0.54676687    -0.01600
C2384       C  0.57330096  0.69936549  0.52305423    -0.09200
C2385       C  0.63068114  0.74060895  0.51199017     0.65100
H2386       H  0.62484959  0.73301775  0.55749644     0.10500
C2387       C  0.55347459  0.68204859  0.55858229     0.63500
H2388       H  0.55905344  0.68998787  0.51319364     0.07900
F2389       F  0.56309984  0.77353408  0.45418350    -0.19600
F2390       F  0.54787027  0.74784407  0.42776130    -0.15800
F2391       F  0.58637066  0.76467816  0.42382130    -0.19300
F2392       F  0.59434083  0.65678503  0.49897891    -0.22700
F2393       F  0.63156166  0.67616576  0.50147535    -0.24100
F2394       F  0.62312435  0.65134457  0.47197199    -0.18100
F2395       F  0.53866123  0.69714870  0.57204053    -0.20600
F2396       F  0.56502880  0.66417921  0.57187506    -0.21800
F2397       F  0.53811423  0.66982356  0.54333205    -0.19000
F2398       F  0.64785018  0.75043079  0.52708129    -0.19100
F2399       F  0.61952111  0.76028976  0.50067622    -0.22900
F2400       F  0.64352764  0.72595250  0.49660123    -0.24500
C2401       C  0.82631279  0.36265204  0.61851936    -0.11300
C2402       C  0.82767240  0.34388454  0.63502279     0.11300
C2403       C  0.80943320  0.34297112  0.65231378    -0.03100
C2404       C  0.78899097  0.35947440  0.65118880    -0.05800
C2405       C  0.78634433  0.37679312  0.63351736    -0.16600
C2406       C  0.80561879  0.37894819  0.61716825     0.02300
C2407       C  0.84597267  0.32318689  0.63191522     0.12300
C2408       C  0.81115055  0.32403964  0.67139416     0.62900
H2409       H  0.77424394  0.35819160  0.66358502     0.12300
C2410       C  0.80349035  0.39696983  0.59744872     0.55000
H2411       H  0.84078197  0.36321235  0.60573485     0.08100
C2412       C  0.84102134  0.30339937  0.61663111    -0.05700
C2413       C  0.85724250  0.28278738  0.61623690    -0.06500
C2414       C  0.87819508  0.28116937  0.63048064    -0.16100
C2415       C  0.88390341  0.30159790  0.64500566    -0.01600
C2416       C  0.86755400  0.32238790  0.64539012    -0.09200
C2417       C  0.81838947  0.30374850  0.60105546     0.65100
H2418       H  0.85345946  0.26741745  0.60479637     0.10500
C2419       C  0.90652351  0.30127162  0.66050208     0.63500
H2420       H  0.87113076  0.33799894  0.65661057     0.07900
F2421       F  0.78192427  0.39206341  0.58534073    -0.19600
F2422       F  0.82355014  0.39488462  0.58277953    -0.15800
F2423       F  0.80278339  0.42127866  0.60542443    -0.19300
F2424       F  0.83267791  0.32819120  0.68374312    -0.22700
F2425       F  0.81163605  0.29999682  0.66274399    -0.24100
F2426       F  0.79107975  0.32582460  0.68602831    -0.18100
F2427       F  0.90715232  0.32200253  0.67455683    -0.20600
F2428       F  0.92814432  0.30128315  0.64770442    -0.21800
F2429       F  0.90602949  0.28015618  0.67399156    -0.19000
F2430       F  0.81646782  0.28198103  0.58845934    -0.19100
F2431       F  0.82024623  0.32350577  0.58611308    -0.22900
F2432       F  0.79673099  0.30627444  0.61360159    -0.24500
C2433       C  0.62417522  0.56874849  0.63334673    -0.11300
C2434       C  0.63361543  0.56481276  0.61156384     0.11300
C2435       C  0.63047287  0.58334644  0.59481850    -0.03100
C2436       C  0.62019714  0.60656819  0.60123454    -0.05800
C2437       C  0.61275047  0.61142052  0.62366114    -0.16600
C2438       C  0.61404679  0.59188183  0.63993452     0.02300
C2439       C  0.64847056  0.54175140  0.60789264     0.12300
C2440       C  0.63811250  0.57859803  0.57047215     0.62900
H2441       H  0.61854870  0.62141982  0.58888480     0.12300
C2442       C  0.60643332  0.59561658  0.66449994     0.55000
H2443       H  0.62625322  0.55382191  0.64557841     0.08100
C2444       C  0.67335036  0.53996610  0.61590840    -0.05700
C2445       C  0.68470405  0.51628973  0.61686261    -0.06500
C2446       C  0.67178359  0.49453971  0.61054600    -0.16100
C2447       C  0.64794957  0.49674923  0.60017751    -0.01600
C2448       C  0.63648891  0.52046095  0.59933849    -0.09200
C2449       C  0.68734942  0.56277340  0.62463471     0.65100
H2450       H  0.70309999  0.51441565  0.62430439     0.10500
C2451       C  0.63472417  0.47436192  0.58988198     0.63500
H2452       H  0.61754848  0.52231639  0.59309582     0.07900
F2453       F  0.61128327  0.57465170  0.67752108    -0.19600
F2454       F  0.58107438  0.60041479  0.66578894    -0.15800
F2455       F  0.61960100  0.61538310  0.67377182    -0.19300
F2456       F  0.62464344  0.55866736  0.56193208    -0.22700
F2457       F  0.66329927  0.57301792  0.56927814    -0.24100
F2458       F  0.63358643  0.59918919  0.55689233    -0.18100
F2459       F  0.61516868  0.48170294  0.57605807    -0.20600
F2460       F  0.62509924  0.45925124  0.60668425    -0.21800
F2461       F  0.65136558  0.46074159  0.57684098    -0.19000
F2462       F  0.71200014  0.55722891  0.62968286    -0.19100
F2463       F  0.67611651  0.57170057  0.64408417    -0.22900
F2464       F  0.68726351  0.58142247  0.60848204    -0.24500
C2465       C  0.59677892  0.33819286  0.60870803    -0.11300
C2466       C  0.57576173  0.35369115  0.60971671     0.11300
C2467       C  0.57874455  0.37990969  0.61139518    -0.03100
C2468       C  0.60306026  0.38971412  0.61297294    -0.05800
C2469       C  0.62429762  0.37413618  0.61340053    -0.16600
C2470       C  0.62114040  0.34780249  0.61053951     0.02300
C2471       C  0.55115137  0.34161962  0.61300279     0.12300
C2472       C  0.55627008  0.39733554  0.61225175     0.62900
H2473       H  0.60559393  0.40969023  0.61492317     0.12300
C2474       C  0.64292172  0.32946207  0.61079220     0.55000
H2475       H  0.59376110  0.31819184  0.60776608     0.08100
C2476       C  0.53664197  0.33202151  0.59496829    -0.05700
C2477       C  0.51302728  0.32177080  0.59990127    -0.06500
C2478       C  0.50421202  0.32043639  0.62220138    -0.16100
C2479       C  0.51960195  0.32835271  0.64033150    -0.01600
C2480       C  0.54288338  0.33892170  0.63532892    -0.09200
C2481       C  0.54629687  0.33213940  0.57085449     0.65100
H2482       H  0.50119694  0.31485019  0.58641975     0.10500
C2483       C  0.51180009  0.32502893  0.66487490     0.63500
H2484       H  0.55485617  0.34549727  0.64885716     0.07900
F2485       F  0.63508926  0.30488122  0.60881117    -0.19600
F2486       F  0.65593703  0.33157878  0.63091230    -0.15800
F2487       F  0.65867483  0.33424926  0.59281586    -0.19300
F2488       F  0.54213065  0.39251627  0.63130318    -0.22700
F2489       F  0.54160429  0.39382003  0.59328611    -0.24100
F2490       F  0.56332402  0.42222647  0.61292568    -0.18100
F2491       F  0.53075262  0.33148719  0.67970300    -0.20600
F2492       F  0.50573271  0.30026970  0.66876119    -0.21800
F2493       F  0.49135912  0.33996047  0.66965337    -0.19000
F2494       F  0.52861529  0.32327140  0.55576395    -0.19100
F2495       F  0.56719909  0.31700296  0.56932505    -0.22900
F2496       F  0.55264219  0.35615336  0.56447335    -0.24500
C2497       C  0.82435718  0.35755602  0.34412648    -0.11300
C2498       C  0.82688776  0.33768062  0.35948951     0.11300
C2499       C  0.80817785  0.33371464  0.37603178    -0.03100
C2500       C  0.78687713  0.34903837  0.37583979    -0.05800
C2501       C  0.78367699  0.36823733  0.35991716    -0.16600
C2502       C  0.80293729  0.37306904  0.34405024     0.02300
C2503       C  0.84810544  0.31984249  0.35699457     0.12300
C2504       C  0.81034977  0.31296497  0.39351367     0.56500
H2505       H  0.77221196  0.34594860  0.38814215     0.12300
C2506       C  0.80059440  0.39387853  0.32676544     0.55000
H2507       H  0.83908928  0.36042522  0.33185864     0.08100
C2508       C  0.84683980  0.29969469  0.34149684    -0.05700
C2509       C  0.86465946  0.28047287  0.34309770    -0.06500
C2510       C  0.88311364  0.28033186  0.36001497    -0.16100
C2511       C  0.88540017  0.30129634  0.37456855    -0.01600
C2512       C  0.86807285  0.32111183  0.37238152    -0.09200
C2513       C  0.82603463  0.29787312  0.32406163     0.65100
H2514       H  0.86338310  0.26443910  0.33193062     0.10500
C2515       C  0.90476879  0.30195088  0.39328009     0.63500
H2516       H  0.86883382  0.33694542  0.38380139     0.07900
F2517       F  0.82017178  0.39360589  0.31146519    -0.19600
F2518       F  0.80066096  0.41678099  0.33765389    -0.15800
F2519       F  0.77857338  0.39127766  0.31476301    -0.19300
F2520       F  0.83112243  0.31688947  0.40692531    -0.22700
F2521       F  0.81250937  0.29003428  0.38284264    -0.24100
F2522       F  0.78968812  0.31205118  0.40757773    -0.18100
F2523       F  0.90292434  0.32351132  0.40618573    -0.20600
F2524       F  0.92845622  0.30109782  0.38399263    -0.21800
F2525       F  0.90153816  0.28166866  0.40748066    -0.19000
F2526       F  0.82772415  0.27615520  0.31135477    -0.19100
F2527       F  0.82737889  0.31795544  0.30942911    -0.22900
F2528       F  0.80300922  0.29799459  0.33467316    -0.24500
C2529       C  0.67021480  0.53684366  0.36734839    -0.11300
C2530       C  0.64979126  0.53785460  0.38218383     0.11300
C2531       C  0.64151694  0.51563202  0.39287178    -0.03100
C2532       C  0.65373297  0.49289157  0.38774614    -0.05800
C2533       C  0.67390247  0.49189975  0.37257232    -0.16600
C2534       C  0.68259132  0.51425325  0.36243350     0.02300
C2535       C  0.63598120  0.56203659  0.38373145     0.12300
C2536       C  0.61974258  0.51588721  0.40933585     0.62900
H2537       H  0.64726426  0.47555166  0.39514898     0.12300
C2538       C  0.70401244  0.51406775  0.34557499     0.55000
H2539       H  0.67586187  0.55394696  0.35900105     0.08100
C2540       C  0.64563796  0.58306416  0.39528960    -0.05700
C2541       C  0.63413692  0.60652177  0.39204619    -0.06500
C2542       C  0.61364038  0.60983100  0.37727035    -0.16100
C2543       C  0.60264157  0.58806370  0.36737494    -0.01600
C2544       C  0.61438033  0.56470893  0.37059470    -0.09200
C2545       C  0.66874518  0.58101253  0.41010922     0.65100
H2546       H  0.64222657  0.62277225  0.40012684     0.10500
C2547       C  0.57917205  0.58894228  0.35287644     0.63500
H2548       H  0.60751850  0.54832808  0.36178276     0.07900
F2549       F  0.72566169  0.50607918  0.35609756    -0.19600
F2550       F  0.70844687  0.53759402  0.33669225    -0.15800
F2551       F  0.69847343  0.49813571  0.32783311    -0.19300
F2552       F  0.59801846  0.52258167  0.39825406    -0.22700
F2553       F  0.62427074  0.53287385  0.42648376    -0.24100
F2554       F  0.61604295  0.49265598  0.41909243    -0.18100
F2555       F  0.58414187  0.60080569  0.33261712    -0.20600
F2556       F  0.56035367  0.60145441  0.36430090    -0.21800
F2557       F  0.57038141  0.56522418  0.34785090    -0.19000
F2558       F  0.67297094  0.60278014  0.42222970    -0.19100
F2559       F  0.68950675  0.57639676  0.39684811    -0.22900
F2560       F  0.66597443  0.56171244  0.42541984    -0.24500
C2561       C  0.57541381  0.37885549  0.37743468    -0.11300
C2562       C  0.57333944  0.35281432  0.37938703     0.11300
C2563       C  0.59505749  0.33817227  0.38275020    -0.03100
C2564       C  0.61847824  0.34992870  0.38170550    -0.05800
C2565       C  0.62076839  0.37572945  0.37741956    -0.16600
C2566       C  0.59883727  0.39075830  0.37712176     0.02300
C2567       C  0.54870227  0.34108697  0.37506491     0.12300
C2568       C  0.59361381  0.31002814  0.38614731     0.62900
H2569       H  0.63520099  0.33853745  0.38249432     0.12300
C2570       C  0.59979287  0.41911721  0.37611901     0.55000
H2571       H  0.55855889  0.38977976  0.37500953     0.08100
C2572       C  0.52913063  0.34101454  0.39117827    -0.05700
C2573       C  0.50637842  0.32944837  0.38540457    -0.06500
C2574       C  0.50291350  0.31821223  0.36419906    -0.16100
C2575       C  0.52275243  0.31759650  0.34839872    -0.01600
C2576       C  0.54518848  0.32965924  0.35394789    -0.09200
C2577       C  0.53212225  0.35340209  0.41411875     0.65100
H2578       H  0.49083745  0.32971972  0.39713966     0.10500
C2579       C  0.52065551  0.30313461  0.32633660     0.63500
H2580       H  0.56043672  0.33000998  0.34190632     0.07900
F2581       F  0.61852233  0.42801168  0.39011286    -0.19600
F2582       F  0.57748591  0.42962261  0.38329846    -0.15800
F2583       F  0.60414483  0.42684242  0.35417564    -0.19300
F2584       F  0.58681178  0.29848092  0.36616104    -0.22700
F2585       F  0.57617340  0.30443572  0.40261755    -0.24100
F2586       F  0.61634036  0.30016927  0.39293721    -0.18100
F2587       F  0.50162142  0.31272786  0.31313792    -0.20600
F2588       F  0.51571464  0.27831844  0.33108957    -0.21800
F2589       F  0.54252710  0.30413308  0.31385985    -0.19000
F2590       F  0.51172513  0.34902644  0.42794980    -0.19100
F2591       F  0.53451798  0.37895862  0.41143654    -0.22900
F2592       F  0.55314493  0.34421996  0.42488188    -0.24500
C2593       C  0.71220866  0.42777578  0.47024993    -0.11300
C2594       C  0.72193700  0.40717906  0.48195169     0.11300
C2595       C  0.72968500  0.38561669  0.46993540    -0.03100
C2596       C  0.72897357  0.38611429  0.44618121    -0.05800
C2597       C  0.71979718  0.40697857  0.43436844    -0.16600
C2598       C  0.71054854  0.42791949  0.44653263     0.02300
C2599       C  0.72189219  0.40807103  0.50695090     0.12300
C2600       C  0.73769579  0.36193488  0.48217951     0.62900
H2601       H  0.73522506  0.36999800  0.43658907     0.12300
C2602       C  0.69769155  0.44963003  0.43469709     0.55000
H2603       H  0.70553130  0.44362285  0.47997282     0.08100
C2604       C  0.74196059  0.41829582  0.51946124    -0.05700
C2605       C  0.74080237  0.41762046  0.54321573    -0.06500
C2606       C  0.71995849  0.40779466  0.55454321    -0.16100
C2607       C  0.69903611  0.39944246  0.54186294    -0.01600
C2608       C  0.70058993  0.39940920  0.51816764    -0.09200
C2609       C  0.76414115  0.43030513  0.50773642     0.65100
H2610       H  0.75621529  0.42475775  0.55317116     0.10500
C2611       C  0.67486769  0.39134741  0.55311316     0.63500
H2612       H  0.68514128  0.39253497  0.50809438     0.07900
F2613       F  0.68696072  0.46611488  0.44995858    -0.19600
F2614       F  0.67890977  0.44066046  0.42080853    -0.15800
F2615       F  0.71478166  0.46279284  0.42189365    -0.19300
F2616       F  0.71796463  0.35291568  0.49484225    -0.22700
F2617       F  0.75755948  0.36686100  0.49641301    -0.24100
F2618       F  0.74497566  0.34332438  0.46725065    -0.18100
F2619       F  0.65566635  0.38860381  0.53761084    -0.20600
F2620       F  0.66743754  0.40906038  0.56882296    -0.21800
F2621       F  0.67839689  0.36864108  0.56372488    -0.19000
F2622       F  0.78138056  0.43948189  0.52309067    -0.19100
F2623       F  0.75601215  0.45004693  0.49455626    -0.22900
F2624       F  0.77609292  0.41303446  0.49409255    -0.24500
C2625       C  0.14204301  0.32041568  0.84820728    -0.11300
C2626       C  0.16446470  0.32121297  0.86045180     0.11300
C2627       C  0.17069179  0.30132353  0.87518066    -0.03100
C2628       C  0.15507279  0.28029449  0.87582728    -0.05800
C2629       C  0.13311707  0.27879448  0.86287537    -0.16600
C2630       C  0.12602591  0.29949756  0.84923642     0.02300
C2631       C  0.18234685  0.34190961  0.85630459     0.12300
C2632       C  0.19396010  0.30215675  0.88993211     0.62900
H2633       H  0.16006538  0.26460149  0.88645607     0.12300
C2634       C  0.10224402  0.29929730  0.83528060     0.55000
H2635       H  0.13755052  0.33612034  0.83739104     0.08100
C2636       C  0.19991411  0.34046751  0.83850126    -0.05700
C2637       C  0.21983817  0.35750622  0.83825857    -0.06500
C2638       C  0.22272902  0.37581745  0.85512857    -0.16100
C2639       C  0.20384952  0.37859162  0.87185665    -0.01600
C2640       C  0.18372021  0.36159355  0.87194616    -0.09200
C2641       C  0.19807942  0.32039816  0.82033935     0.65100
H2642       H  0.23407861  0.35586199  0.82540051     0.10500
C2643       C  0.20565988  0.39821806  0.89037443     0.63500
H2644       H  0.16967360  0.36251657  0.88510346     0.07900
F2645       F  0.10188915  0.27845086  0.82139412    -0.19600
F2646       F  0.10023615  0.32030430  0.82172598    -0.15800
F2647       F  0.08176012  0.29888781  0.84950790    -0.19300
F2648       F  0.19254712  0.32230980  0.90455136    -0.22700
F2649       F  0.21504796  0.30449921  0.87661084    -0.24100
F2650       F  0.19657392  0.28072925  0.90284800    -0.18100
F2651       F  0.18598207  0.39666994  0.90549377    -0.20600
F2652       F  0.20521203  0.42184275  0.88088473    -0.21800
F2653       F  0.22760865  0.39503077  0.90239822    -0.19000
F2654       F  0.21732832  0.32207761  0.80479012    -0.19100
F2655       F  0.17577245  0.32297976  0.80878506    -0.22900
F2656       F  0.19906599  0.29689677  0.83003940    -0.24500
C2657       C  0.24429750  0.47991774  0.76610490    -0.11300
C2658       C  0.26042574  0.49830285  0.75763608     0.11300
C2659       C  0.28120884  0.50605493  0.77065598    -0.03100
C2660       C  0.28678795  0.49303397  0.79062330    -0.05800
C2661       C  0.27198055  0.47305528  0.79821568    -0.16600
C2662       C  0.24957929  0.46718151  0.78645157     0.02300
C2663       C  0.25772811  0.50659690  0.73381799     0.12300
C2664       C  0.29782840  0.52753433  0.76309264     0.62900
H2665       H  0.30330828  0.49794360  0.80022884     0.12300
C2666       C  0.23191596  0.44696151  0.79468144     0.55000
H2667       H  0.22820037  0.47479696  0.75602669     0.08100
C2668       C  0.26914375  0.49281881  0.71614299    -0.05700
C2669       C  0.27234871  0.50441370  0.69509567    -0.06500
C2670       C  0.26418093  0.52892995  0.69113392    -0.16100
C2671       C  0.25017805  0.54161941  0.70796852    -0.01600
C2672       C  0.24731844  0.53017599  0.72924911    -0.09200
C2673       C  0.27930212  0.46656914  0.71991547     0.65100
H2674       H  0.28310340  0.49509823  0.68209250     0.10500
C2675       C  0.23941649  0.56767127  0.70495112     0.63500
H2676       H  0.23820158  0.54035279  0.74281603     0.07900
F2677       F  0.24454489  0.42446291  0.79660852    -0.19600
F2678       F  0.21206268  0.44347239  0.78000698    -0.15800
F2679       F  0.22222192  0.45368831  0.81550103    -0.19300
F2680       F  0.28383925  0.54925439  0.76178022    -0.22700
F2681       F  0.30805931  0.52241851  0.74211676    -0.24100
F2682       F  0.31726788  0.53172691  0.77805937    -0.18100
F2683       F  0.21456396  0.56768288  0.71140996    -0.20600
F2684       F  0.24053970  0.57596784  0.68286704    -0.21800
F2685       F  0.25237952  0.58427021  0.71850791    -0.19000
F2686       F  0.28993406  0.45672238  0.70049337    -0.19100
F2687       F  0.26009017  0.45090249  0.72641745    -0.22900
F2688       F  0.29740630  0.46684427  0.73659312    -0.24500
C2689       C  0.31153327  0.33321750  0.76092659    -0.11300
C2690       C  0.33233371  0.34000803  0.74798375     0.11300
C2691       C  0.34785017  0.35999102  0.75494788    -0.03100
C2692       C  0.34240840  0.37202978  0.77536262    -0.05800
C2693       C  0.32172149  0.36529027  0.78858424    -0.16600
C2694       C  0.30573371  0.34575799  0.78121114     0.02300
C2695       C  0.33758053  0.32646966  0.72680368     0.12300
C2696       C  0.36984756  0.36887940  0.74072704     0.62900
H2697       H  0.35436988  0.38703889  0.78118617     0.12300
C2698       C  0.28206532  0.33910535  0.79389592     0.55000
H2699       H  0.29981368  0.31813101  0.75486912     0.08100
C2700       C  0.35396740  0.30574032  0.72638951    -0.05700
C2701       C  0.36450648  0.29873174  0.70563305    -0.06500
C2702       C  0.35920724  0.31205184  0.68577298    -0.16100
C2703       C  0.34056474  0.33090265  0.68585710    -0.01600
C2704       C  0.32956581  0.33744648  0.70658111    -0.09200
C2705       C  0.36128947  0.29213345  0.74792514     0.65100
H2706       H  0.37852011  0.28408813  0.70503199     0.10500
C2707       C  0.33407618  0.34563592  0.66472642     0.63500
H2708       H  0.31653999  0.35294882  0.70752081     0.07900
F2709       F  0.28793438  0.32886514  0.81467782    -0.19600
F2710       F  0.26774229  0.32187759  0.78216858    -0.15800
F2711       F  0.26784818  0.36046108  0.79693646    -0.19300
F2712       F  0.36131697  0.37791564  0.72024206    -0.22700
F2713       F  0.38630520  0.34939591  0.73682812    -0.24100
F2714       F  0.38297009  0.38790681  0.75126529    -0.18100
F2715       F  0.31616715  0.36379211  0.66889749    -0.20600
F2716       F  0.32484722  0.32966484  0.64834429    -0.21800
F2717       F  0.35517617  0.35744325  0.65661248    -0.19000
F2718       F  0.37724683  0.27227098  0.74361458    -0.19100
F2719       F  0.34009598  0.28284663  0.75827617    -0.22900
F2720       F  0.37322152  0.30830783  0.76262904    -0.24500
C2721       C  0.19142643  0.34034719  0.10868582    -0.11300
C2722       C  0.17673140  0.34219591  0.12822711     0.11300
C2723       C  0.18318654  0.35975242  0.14523708    -0.03100
C2724       C  0.20545778  0.37356296  0.14280935    -0.05800
C2725       C  0.22103864  0.37030715  0.12394442    -0.16600
C2726       C  0.21322284  0.35458867  0.10596238     0.02300
C2727       C  0.15778002  0.32234981  0.13192104     0.12300
C2728       C  0.16668989  0.36373631  0.16583004     0.62900
H2729       H  0.21141085  0.38622987  0.15605718     0.12300
C2730       C  0.22769005  0.35294515  0.08389250     0.55000
H2731       H  0.18636846  0.32664216  0.09598392     0.08100
C2732       C  0.13498811  0.32109687  0.11977720    -0.05700
C2733       C  0.12024222  0.29938942  0.12177061    -0.06500
C2734       C  0.12809527  0.27886553  0.13478523    -0.16100
C2735       C  0.15020342  0.28077050  0.14789306    -0.01600
C2736       C  0.16475238  0.30247246  0.14602143    -0.09200
C2737       C  0.12676614  0.34202371  0.10410561     0.65100
H2738       H  0.10325674  0.29761606  0.11195546     0.10500
C2739       C  0.15874205  0.25998162  0.16362527     0.63500
H2740       H  0.18247241  0.30362384  0.15482731     0.07900
F2741       F  0.21431429  0.34040144  0.06736117    -0.19600
F2742       F  0.24994124  0.34031421  0.08718802    -0.15800
F2743       F  0.23261576  0.37676491  0.07595337    -0.19300
F2744       F  0.16534786  0.34209703  0.17850420    -0.22700
F2745       F  0.14290565  0.37037538  0.15896265    -0.24100
F2746       F  0.17572374  0.38258592  0.17964778    -0.18100
F2747       F  0.17710618  0.26815531  0.17837359    -0.20600
F2748       F  0.16846082  0.24033701  0.15119112    -0.21800
F2749       F  0.13882711  0.25158772  0.17643800    -0.19000
F2750       F  0.10284310  0.33814570  0.09590615    -0.19100
F2751       F  0.14278203  0.34349599  0.08583773    -0.22900
F2752       F  0.12692195  0.36457897  0.11553474    -0.24500
C2753       C  0.29527508  0.42449892  0.01543838    -0.11300
C2754       C  0.28727329  0.40297011  0.00401086     0.11300
C2755       C  0.28022064  0.38151274  0.01647831    -0.03100
C2756       C  0.28162531  0.38240260  0.04021780    -0.05800
C2757       C  0.28893944  0.40420275  0.05171411    -0.16600
C2758       C  0.29554979  0.42580956  0.03918302     0.02300
C2759       C  0.28714994  0.40339054  0.97890872     0.12300
C2760       C  0.27093708  0.35794570  0.00480449     0.62900
H2761       H  0.27662841  0.36610513  0.05007689     0.12300
C2762       C  0.30317737  0.45002954  0.05069406     0.55000
H2763       H  0.30098893  0.44048219  0.00548036     0.08100
C2764       C  0.26871616  0.41646157  0.96644518    -0.05700
C2765       C  0.27041710  0.41668908  0.94272494    -0.06500
C2766       C  0.28952646  0.40391681  0.93116806    -0.16100
C2767       C  0.30775794  0.39046130  0.94373376    -0.01600
C2768       C  0.30649301  0.39099872  0.96749075    -0.09200
C2769       C  0.24730304  0.43002294  0.97810590     0.65100
H2770       H  0.25663271  0.42682392  0.93292541     0.10500
C2771       C  0.32865517  0.37585843  0.93236247     0.63500
H2772       H  0.32056790  0.38152139  0.97748605     0.07900
F2773       F  0.28285689  0.46027223  0.06181286    -0.19600
F2774       F  0.31177553  0.46756496  0.03536409    -0.15800
F2775       F  0.32207595  0.44541620  0.06605095    -0.19300
F2776       F  0.28977968  0.34760276  0.99182677    -0.22700
F2777       F  0.25085165  0.36364521  0.99102954    -0.24100
F2778       F  0.26323795  0.34005537  0.02019689    -0.18100
F2779       F  0.34569254  0.36657924  0.94786313    -0.20600
F2780       F  0.34146241  0.39115766  0.91753571    -0.21800
F2781       F  0.31872280  0.35573138  0.92075099    -0.19000
F2782       F  0.23035364  0.43967020  0.96271394    -0.19100
F2783       F  0.25641075  0.44968029  0.99084065    -0.22900
F2784       F  0.23463839  0.41369174  0.99210099    -0.24500
C2785       C  0.25559297  0.49393573  0.21261770    -0.11300
C2786       C  0.26834124  0.48746391  0.23247985     0.11300
C2787       C  0.28240117  0.46505980  0.23327190    -0.03100
C2788       C  0.28466321  0.45074609  0.21347519    -0.05800
C2789       C  0.27403512  0.45838553  0.19281033    -0.16600
C2790       C  0.25840383  0.47995602  0.19251182     0.02300
C2791       C  0.26901142  0.50561104  0.25151362     0.12300
C2792       C  0.29587163  0.45684260  0.25468677     0.62900
H2793       H  0.29591772  0.43389718  0.21377143     0.12300
C2794       C  0.24574605  0.48905344  0.17105697     0.55000
H2795       H  0.24450934  0.51090343  0.21272862     0.08100
C2796       C  0.28562790  0.52612014  0.25133500    -0.05700
C2797       C  0.28834974  0.54034201  0.27113226    -0.06500
C2798       C  0.27621027  0.53401247  0.29152776    -0.16100
C2799       C  0.25864270  0.51392016  0.29127137    -0.01600
C2800       C  0.25494182  0.50059472  0.27093006    -0.09200
C2801       C  0.30133025  0.53228931  0.23062149     0.65100
H2802       H  0.30114727  0.55597757  0.27095468     0.10500
C2803       C  0.24461413  0.50546502  0.31225668     0.63500
H2804       H  0.24210752  0.48497394  0.27032910     0.07900
F2805       F  0.26349893  0.49401147  0.15467175    -0.19600
F2806       F  0.23218489  0.51078517  0.17463445    -0.15800
F2807       F  0.22939097  0.47098040  0.16328068    -0.19300
F2808       F  0.27864013  0.45187026  0.27148251    -0.22700
F2809       F  0.31187683  0.47546045  0.26199206    -0.24100
F2810       F  0.30991435  0.43540447  0.25126518    -0.18100
F2811       F  0.22830004  0.48603154  0.30766721    -0.20600
F2812       F  0.23068496  0.52509688  0.32087431    -0.21800
F2813       F  0.26138560  0.49706124  0.32836506    -0.19000
F2814       F  0.31749581  0.55201740  0.23457002    -0.19100
F2815       F  0.28593748  0.53886676  0.21283298    -0.22900
F2816       F  0.31555393  0.51175501  0.22445736    -0.24500
C2817       C  0.30196437  0.34131259  0.22781230    -0.11300
C2818       C  0.32557398  0.33161109  0.23322497     0.11300
C2819       C  0.34386242  0.32858567  0.21611606    -0.03100
C2820       C  0.33872423  0.33787914  0.19443444    -0.05800
C2821       C  0.31608699  0.34989309  0.18964061    -0.16600
C2822       C  0.29699124  0.35091222  0.20613565     0.02300
C2823       C  0.33228158  0.32822048  0.25727599     0.12300
C2824       C  0.36909152  0.31665862  0.22107661     0.62900
H2825       H  0.35298927  0.33736661  0.18143729     0.12300
C2826       C  0.27216559  0.36346003  0.20111493     0.55000
H2827       H  0.28820028  0.34306626  0.24115148     0.08100
C2828       C  0.34213018  0.34840750  0.26996609    -0.05700
C2829       C  0.35409078  0.34315052  0.29046168    -0.06500
C2830       C  0.35599466  0.31865303  0.29868328    -0.16100
C2831       C  0.34339511  0.29892868  0.28742997    -0.01600
C2832       C  0.33180298  0.30410803  0.26656806    -0.09200
C2833       C  0.34108620  0.37518397  0.26137950     0.65100
H2834       H  0.36317807  0.35806294  0.29979371     0.10500
C2835       C  0.34305706  0.27253779  0.29687459     0.63500
H2836       H  0.32343629  0.28917199  0.25675255     0.07900
F2837       F  0.25570084  0.36143869  0.21907190    -0.19600
F2838       F  0.26131471  0.35237005  0.18240048    -0.15800
F2839       F  0.27589358  0.38858349  0.19675316    -0.19300
F2840       F  0.36563547  0.29239591  0.22848213    -0.22700
F2841       F  0.38153228  0.33008041  0.23759422    -0.24100
F2842       F  0.38417502  0.31586508  0.20207328    -0.18100
F2843       F  0.33074995  0.25609299  0.28262458    -0.20600
F2844       F  0.33083665  0.27246853  0.31747485    -0.21800
F2845       F  0.36718627  0.26388547  0.29983395    -0.19000
F2846       F  0.35110752  0.39190938  0.27680379    -0.19100
F2847       F  0.31652773  0.38202126  0.25760079    -0.22900
F2848       F  0.35437141  0.37725727  0.24142884    -0.24500
C2849       C  0.68922189  0.13263118  0.84818982    -0.11300
C2850       C  0.68771126  0.15353571  0.86256427     0.11300
C2851       C  0.70619628  0.15710962  0.87938138    -0.03100
C2852       C  0.72691224  0.14094533  0.87981262    -0.05800
C2853       C  0.72924111  0.12081312  0.86468269    -0.16600
C2854       C  0.70964771  0.11585826  0.84917510     0.02300
C2855       C  0.66781555  0.17261435  0.85875120     0.12300
C2856       C  0.70407303  0.17798999  0.89675562     0.62900
H2857       H  0.74169563  0.14398439  0.89202065     0.12300
C2858       C  0.71062413  0.09344787  0.83343743     0.55000
H2859       H  0.67453465  0.12993396  0.83583534     0.08100
C2860       C  0.67145361  0.19261899  0.84343283    -0.05700
C2861       C  0.65414333  0.21247190  0.84329675    -0.06500
C2862       C  0.63323484  0.21272064  0.85764370    -0.16100
C2863       C  0.62876496  0.19194989  0.87196705    -0.01600
C2864       C  0.64619057  0.17207329  0.87217508    -0.09200
C2865       C  0.69391675  0.19322592  0.82771980     0.65100
H2866       H  0.65720118  0.22845389  0.83240730     0.10500
C2867       C  0.60643634  0.19141806  0.88776098     0.63500
H2868       H  0.64367631  0.15643003  0.88355627     0.07900
F2869       F  0.73241839  0.09392195  0.82087064    -0.19600
F2870       F  0.69063475  0.09313907  0.81858384    -0.15800
F2871       F  0.70986449  0.07168344  0.84601984    -0.19300
F2872       F  0.68280082  0.17451279  0.90962377    -0.22700
F2873       F  0.70268453  0.20094941  0.88610771    -0.24100
F2874       F  0.72437237  0.17844977  0.91126577    -0.18100
F2875       F  0.60638913  0.17025904  0.90123131    -0.20600
F2876       F  0.58462543  0.19152995  0.87523451    -0.21800
F2877       F  0.60682333  0.21215565  0.90178477    -0.19000
F2878       F  0.69403145  0.21442617  0.81430645    -0.19100
F2879       F  0.69345674  0.17256840  0.81363606    -0.22900
F2880       F  0.71580541  0.19294705  0.84013618    -0.24500
C2881       C  0.67951141  0.33975929  0.77761377    -0.11300
C2882       C  0.67286101  0.32660883  0.75801231     0.11300
C2883       C  0.65954913  0.30388689  0.75963158    -0.03100
C2884       C  0.64975546  0.29710435  0.78074603    -0.05800
C2885       C  0.65344430  0.31224533  0.79980504    -0.16600
C2886       C  0.66986236  0.33286457  0.79876091     0.02300
C2887       C  0.67662341  0.33901728  0.73605633     0.12300
C2888       C  0.65489187  0.28764702  0.73897928     0.62900
H2889       H  0.63765271  0.28096964  0.78220552     0.12300
C2890       C  0.67598108  0.34813060  0.81966603     0.55000
H2891       H  0.69050180  0.35664868  0.77591737     0.08100
C2892       C  0.65818123  0.35526408  0.72719627    -0.05700
C2893       C  0.66231381  0.36607497  0.70600001    -0.06500
C2894       C  0.68478805  0.36247215  0.69418212    -0.16100
C2895       C  0.70388084  0.34744475  0.70379655    -0.01600
C2896       C  0.69914389  0.33536454  0.72448538    -0.09200
C2897       C  0.63469939  0.36196649  0.74045713     0.65100
H2898       H  0.64813464  0.37806635  0.69867434     0.10500
C2899       C  0.72961034  0.34563329  0.69325148     0.63500
H2900       H  0.71316503  0.32341791  0.73210843     0.07900
F2901       F  0.65458973  0.35929528  0.82798908    -0.19600
F2902       F  0.69321909  0.36673706  0.81511296    -0.15800
F2903       F  0.68590628  0.33262683  0.83607645    -0.19300
F2904       F  0.67748785  0.28137053  0.72913406    -0.22700
F2905       F  0.64047594  0.30037169  0.72336532    -0.24100
F2906       F  0.64263600  0.26571884  0.74454789    -0.18100
F2907       F  0.74609948  0.33271550  0.70699179    -0.20600
F2908       F  0.73901368  0.36945478  0.69002393    -0.21800
F2909       F  0.72830482  0.33327527  0.67274399    -0.19000
F2910       F  0.61931409  0.37810646  0.72855453    -0.19100
F2911       F  0.64127072  0.37366085  0.76045247    -0.22900
F2912       F  0.62110802  0.34070831  0.74535023    -0.24500
C2913       C  0.50044092  0.23664683  0.71199355    -0.11300
C2914       C  0.49586317  0.25000551  0.73200100     0.11300
C2915       C  0.47502042  0.26631956  0.73321860    -0.03100
C2916       C  0.46019475  0.26970427  0.71385766    -0.05800
C2917       C  0.46611452  0.25829956  0.69308576    -0.16600
C2918       C  0.48593261  0.24053165  0.69233280     0.02300
C2919       C  0.51568465  0.25088911  0.74962076     0.12300
C2920       C  0.46969841  0.28179415  0.75429477     0.62900
H2921       H  0.44483104  0.28291403  0.71436060     0.12300
C2922       C  0.49288967  0.22695039  0.67066448     0.55000
H2923       H  0.51660838  0.22445028  0.71147760     0.08100
C2924       C  0.51629161  0.23497012  0.76863284    -0.05700
C2925       C  0.53203945  0.24130165  0.78694044    -0.06500
C2926       C  0.54754726  0.26264401  0.78640779    -0.16100
C2927       C  0.54926796  0.27639584  0.76565664    -0.01600
C2928       C  0.53313373  0.27014273  0.74780722    -0.09200
C2929       C  0.50052088  0.21145155  0.76935594     0.65100
H2930       H  0.53146153  0.23013557  0.80217696     0.10500
C2931       C  0.56693978  0.29835785  0.76200531     0.63500
H2932       H  0.53275893  0.28145460  0.73261717     0.07900
F2933       F  0.47287344  0.21277019  0.66332099    -0.19600
F2934       F  0.51299304  0.21097030  0.67371528    -0.15800
F2935       F  0.49931756  0.24409109  0.65416716    -0.19300
F2936       F  0.48872983  0.29884419  0.75762331    -0.22700
F2937       F  0.46800656  0.26646782  0.77301461    -0.24100
F2938       F  0.44748888  0.29497274  0.75252829    -0.18100
F2939       F  0.56847243  0.30505789  0.73942745    -0.20600
F2940       F  0.59078977  0.29205647  0.76895994    -0.21800
F2941       F  0.55852974  0.31907755  0.77382778    -0.19000
F2942       F  0.50393717  0.19835457  0.78929880    -0.19100
F2943       F  0.50720591  0.19599479  0.75158030    -0.22900
F2944       F  0.47546969  0.21736402  0.76744520    -0.24500
C2945       C  0.46602447  0.33458712  0.84312447    -0.11300
C2946       C  0.45699718  0.33994934  0.86478312     0.11300
C2947       C  0.47070460  0.33193544  0.88396992    -0.03100
C2948       C  0.49442618  0.32085371  0.88070653    -0.05800
C2949       C  0.50422306  0.31716835  0.85893257    -0.16600
C2950       C  0.48936275  0.32316794  0.83977249     0.02300
C2951       C  0.43250797  0.35307719  0.86631846     0.12300
C2952       C  0.46018498  0.33491852  0.90762962     0.62900
H2953       H  0.50567410  0.31541519  0.89509965     0.12300
C2954       C  0.49765279  0.31690996  0.81582209     0.55000
H2955       H  0.45463159  0.33984571  0.82874722     0.08100
C2956       C  0.43023568  0.37922859  0.86304792    -0.05700
C2957       C  0.40616267  0.38998695  0.86213132    -0.06500
C2958       C  0.38440043  0.37534126  0.86355686    -0.16100
C2959       C  0.38689350  0.34890786  0.86629871    -0.01600
C2960       C  0.41098071  0.33844242  0.86797362    -0.09200
C2961       C  0.45318171  0.39550859  0.85973635     0.65100
H2962       H  0.40415680  0.40993994  0.85955765     0.10500
C2963       C  0.36455432  0.33132965  0.86600698     0.63500
H2964       H  0.41333633  0.31840874  0.86969370     0.07900
F2965       F  0.51766750  0.33169186  0.80965302    -0.19600
F2966       F  0.47870414  0.32089304  0.80029757    -0.15800
F2967       F  0.50446152  0.29198269  0.81456509    -0.19300
F2968       F  0.43833278  0.32133189  0.90954002    -0.22700
F2969       F  0.45513380  0.35983200  0.91195280    -0.24100
F2970       F  0.47669173  0.32639242  0.92392906    -0.18100
F2971       F  0.37173337  0.30642710  0.86596818    -0.20600
F2972       F  0.35048453  0.33537156  0.84673011    -0.21800
F2973       F  0.34999308  0.33524734  0.88498229    -0.19000
F2974       F  0.44701666  0.42059667  0.85806360    -0.19100
F2975       F  0.46539493  0.38864648  0.84007944    -0.22900
F2976       F  0.46930064  0.39266298  0.87781347    -0.24500
C2977       C  0.64196325  0.17416726  0.14556006    -0.11300
C2978       C  0.66380665  0.17288977  0.13248468     0.11300
C2979       C  0.66904805  0.19194875  0.11662125    -0.03100
C2980       C  0.65256547  0.21221375  0.11497037    -0.05800
C2981       C  0.63140482  0.21452219  0.12891221    -0.16600
C2982       C  0.62557550  0.19486820  0.14421424     0.02300
C2983       C  0.68201384  0.15239311  0.13639838     0.12300
C2984       C  0.69247561  0.19141722  0.10200924     0.62900
H2985       H  0.65649602  0.22691909  0.10292195     0.12300
C2986       C  0.60288560  0.19596387  0.15959746     0.55000
H2987       H  0.63829339  0.15910148  0.15731012     0.08100
C2988       C  0.70054868  0.15438651  0.15335338    -0.05700
C2989       C  0.72123170  0.13817821  0.15243829    -0.06500
C2990       C  0.72374905  0.12021391  0.13522723    -0.16100
C2991       C  0.70418166  0.11698219  0.11930568    -0.01600
C2992       C  0.68325078  0.13291823  0.12054312    -0.09200
C2993       C  0.69881482  0.17411241  0.17181861     0.65100
H2994       H  0.73620901  0.14010398  0.16463744     0.10500
C2995       C  0.70624332  0.09826823  0.10004086     0.63500
H2996       H  0.66857069  0.13165465  0.10798859     0.07900
F2997       F  0.60363860  0.21747237  0.17259767    -0.19600
F2998       F  0.60191585  0.17569824  0.17412561    -0.15800
F2999       F  0.58129953  0.19583202  0.14675108    -0.19300
F3000       F  0.69224631  0.17061311  0.08812349    -0.22700
F3001       F  0.71349900  0.19068055  0.11558112    -0.24100
F3002       F  0.69426267  0.21232856  0.08832329    -0.18100
F3003       F  0.68602005  0.09967557  0.08549460    -0.20600
F3004       F  0.70720922  0.07424551  0.10861599    -0.21800
F3005       F  0.72764141  0.10291393  0.08761090    -0.19000
F3006       F  0.71918460  0.17330406  0.18622852    -0.19100
F3007       F  0.67752140  0.17013276  0.18453808    -0.22900
F3008       F  0.69773532  0.19775810  0.16240930    -0.24500
C3009       C  0.48097989  0.35698875  0.10195088    -0.11300
C3010       C  0.45994585  0.34352889  0.10911192     0.11300
C3011       C  0.46286537  0.31880659  0.11728564    -0.03100
C3012       C  0.48714877  0.30919505  0.12000162    -0.05800
C3013       C  0.50831963  0.32359043  0.11495975    -0.16600
C3014       C  0.50531997  0.34743533  0.10484782     0.02300
C3015       C  0.43546039  0.35659735  0.11053690     0.12300
C3016       C  0.44041282  0.30299050  0.12373931     0.62900
H3017       H  0.48982414  0.29078162  0.12723832     0.12300
C3018       C  0.52765005  0.36285401  0.09743958     0.55000
H3019       H  0.47825226  0.37566693  0.09530498     0.08100
C3020       C  0.42940032  0.37156801  0.12950617    -0.05700
C3021       C  0.40483336  0.38043321  0.13177075    -0.06500
C3022       C  0.38613082  0.37491426  0.11578885    -0.16100
C3023       C  0.39271254  0.36128870  0.09599037    -0.01600
C3024       C  0.41744987  0.35239131  0.09373122    -0.09200
C3025       C  0.44868287  0.37765365  0.14760097     0.65100
H3026       H  0.39985078  0.39112284  0.14666692     0.10500
C3027       C  0.37399364  0.35618690  0.07727203     0.63500
H3028       H  0.42273466  0.34123603  0.07919204     0.07900
F3029       F  0.53960298  0.37266283  0.11617169    -0.19600
F3030       F  0.52053346  0.38251120  0.08363913    -0.15800
F3031       F  0.54423180  0.34803847  0.08542195    -0.19300
F3032       F  0.42553608  0.29922967  0.10493589    -0.22700
F3033       F  0.42657305  0.31492180  0.14030920    -0.24100
F3034       F  0.44744148  0.27978110  0.13194620    -0.18100
F3035       F  0.38545161  0.34660348  0.05813118    -0.20600
F3036       F  0.36205149  0.37816732  0.07123777    -0.21800
F3037       F  0.35653761  0.33894321  0.08452803    -0.19000
F3038       F  0.43864585  0.39190036  0.16494522    -0.19100
F3039       F  0.46811165  0.39106925  0.13817249    -0.22900
F3040       F  0.45799666  0.35583416  0.15690898    -0.24500
C3041       C  0.56953935  0.28178011  0.96848393    -0.11300
C3042       C  0.59176397  0.27607574  0.98001161     0.11300
C3043       C  0.61347085  0.26977862  0.96753995    -0.03100
C3044       C  0.61226156  0.26998111  0.94376794    -0.05800
C3045       C  0.59018529  0.27617720  0.93213460    -0.16600
C3046       C  0.56842171  0.28232478  0.94464862     0.02300
C3047       C  0.59186334  0.27729307  0.00518561     0.12300
C3048       C  0.63783135  0.26300609  0.97928320     0.62900
H3049       H  0.62873085  0.26535611  0.93395852     0.12300
C3050       C  0.54457769  0.29067665  0.93298229     0.55000
H3051       H  0.55314649  0.28634338  0.97841309     0.08100
C3052       C  0.59504055  0.30016478  0.01693851    -0.05700
C3053       C  0.59580713  0.29984395  0.04072846    -0.06500
C3054       C  0.59273614  0.27765143  0.05309052    -0.16100
C3055       C  0.58894020  0.25478364  0.04129177    -0.01600
C3056       C  0.58860894  0.25507975  0.01743326    -0.09200
C3057       C  0.59720953  0.32485737  0.00440596     0.65100
H3058       H  0.59836890  0.31713395  0.04997328     0.10500
C3059       C  0.58594012  0.23008509  0.05367594     0.63500
H3060       H  0.58584082  0.23789740  0.00804191     0.07900
F3061       F  0.52661620  0.29840120  0.94833717    -0.19600
F3062       F  0.53474891  0.27112439  0.92054306    -0.15800
F3063       F  0.54966792  0.31054701  0.91875332    -0.19300
F3064       F  0.63455965  0.24168682  0.99212502    -0.22700
F3065       F  0.64534326  0.28234640  0.99323344    -0.24100
F3066       F  0.65686838  0.25842836  0.96395941    -0.18100
F3067       F  0.56379647  0.23013175  0.06570712    -0.20600
F3068       F  0.60573767  0.22653318  0.06837822    -0.21800
F3069       F  0.58536717  0.20996948  0.03890378    -0.19000
F3070       F  0.60129123  0.34468844  0.01902184    -0.19100
F3071       F  0.57533894  0.32951980  0.99271062    -0.22900
F3072       F  0.61687100  0.32397885  0.98927966    -0.24500
C3073       C  0.69634957  0.32814751  0.26573751    -0.11300
C3074       C  0.67197356  0.32724458  0.25701265     0.11300
C3075       C  0.65164423  0.33539546  0.27048544    -0.03100
C3076       C  0.65670297  0.34673889  0.29139220    -0.05800
C3077       C  0.68122015  0.34965754  0.29928906    -0.16600
C3078       C  0.70137228  0.33929942  0.28688133     0.02300
C3079       C  0.66820271  0.32110463  0.23276934     0.12300
C3080       C  0.62479467  0.33290805  0.26241254     0.62900
H3081       H  0.64154936  0.35437147  0.30142105     0.12300
C3082       C  0.72803726  0.34126062  0.29538934     0.55000
H3083       H  0.71151309  0.32131619  0.25528231     0.08100
C3084       C  0.66961718  0.34008502  0.21612531    -0.05700
C3085       C  0.65970078  0.33526536  0.19457795    -0.06500
C3086       C  0.64954055  0.31191266  0.18911811    -0.16100
C3087       C  0.65104085  0.29198850  0.20478456    -0.01600
C3088       C  0.66014847  0.29703286  0.22669135    -0.09200
C3089       C  0.68066330  0.36559899  0.22143562     0.65100
H3090       H  0.65866416  0.35008327  0.18213039     0.10500
C3091       C  0.64276127  0.26576409  0.19834925     0.63500
H3092       H  0.66003289  0.28258548  0.23950600     0.07900
F3093       F  0.73424463  0.36610484  0.29861996    -0.19600
F3094       F  0.74493695  0.33098515  0.28027106    -0.15800
F3095       F  0.73031281  0.32862890  0.31567343    -0.19300
F3096       F  0.61945545  0.30799861  0.25843673    -0.22700
F3097       F  0.62135026  0.34631182  0.24267833    -0.24100
F3098       F  0.60791158  0.34174156  0.27827983    -0.18100
F3099       F  0.64438934  0.24942829  0.21643271    -0.20600
F3100       F  0.65790519  0.25685437  0.18118301    -0.21800
F3101       F  0.61830855  0.26591012  0.19085662    -0.19000
F3102       F  0.68046157  0.38116577  0.20275081    -0.19100
F3103       F  0.70520148  0.36282287  0.22832096    -0.22900
F3104       F  0.66717215  0.37711184  0.23846614    -0.24500
C3105       C  0.46991695  0.26265404  0.24837234    -0.11300
C3106       C  0.49379163  0.25257216  0.25188716     0.11300
C3107       C  0.50068629  0.24425805  0.27371170    -0.03100
C3108       C  0.48438207  0.24898767  0.29188652    -0.05800
C3109       C  0.46176088  0.26200393  0.28883523    -0.16600
C3110       C  0.45348401  0.26716663  0.26647806     0.02300
C3111       C  0.51218108  0.25475434  0.23320420     0.12300
C3112       C  0.52537778  0.23097861  0.27779965     0.62900
H3113       H  0.49014332  0.24415051  0.30886765     0.12300
C3114       C  0.42761483  0.27748967  0.26150709     0.55000
H3115       H  0.46478521  0.26837891  0.23142342     0.08100
C3116       C  0.51048429  0.24129409  0.21263804    -0.05700
C3117       C  0.52556484  0.24867981  0.19432993    -0.06500
C3118       C  0.54249906  0.26877996  0.19594310    -0.16100
C3119       C  0.54541776  0.28096487  0.21730001    -0.01600
C3120       C  0.52969044  0.27402181  0.23520833    -0.09200
C3121       C  0.49288075  0.21947053  0.20886372     0.65100
H3122       H  0.52339522  0.23900148  0.17833237     0.10500
C3123       C  0.56445389  0.30154951  0.22170033     0.63500
H3124       H  0.53014882  0.28450168  0.25090176     0.07900
F3125       F  0.42120898  0.27411711  0.23902149    -0.19600
F3126       F  0.42673814  0.30282138  0.26615800    -0.15800
F3127       F  0.41006461  0.26515345  0.27448865    -0.19300
F3128       F  0.54506671  0.24728860  0.27466678    -0.22700
F3129       F  0.52775093  0.21117241  0.26287623    -0.24100
F3130       F  0.52695314  0.22160593  0.29956389    -0.18100
F3131       F  0.56693894  0.30662754  0.24456413    -0.20600
F3132       F  0.55710957  0.32342473  0.21116049    -0.21800
F3133       F  0.58766832  0.29434356  0.21387382    -0.19000
F3134       F  0.50638785  0.19911134  0.20108666    -0.19100
F3135       F  0.47535382  0.22598301  0.19271597    -0.22900
F3136       F  0.48048483  0.21220831  0.22826519    -0.24500
C3137       C  0.80590074  0.65097361  0.83911249    -0.11300
C3138       C  0.82480440  0.64822052  0.85534513     0.11300
C3139       C  0.82301259  0.62870768  0.87146794    -0.03100
C3140       C  0.80157552  0.61351013  0.87155084    -0.05800
C3141       C  0.78194747  0.61714680  0.85612822    -0.16600
C3142       C  0.78448349  0.63571882  0.83907617     0.02300
C3143       C  0.84289128  0.66916042  0.85775123     0.12300
C3144       C  0.84238789  0.62409803  0.88972520     0.62900
H3145       H  0.79965337  0.59937473  0.88456555     0.12300
C3146       C  0.76439545  0.64033398  0.82137864     0.55000
H3147       H  0.80728046  0.66636530  0.82727942     0.08100
C3148       C  0.86365111  0.67243436  0.84324707    -0.05700
C3149       C  0.87836573  0.69419201  0.84558909    -0.06500
C3150       C  0.87282432  0.71254765  0.86192658    -0.16100
C3151       C  0.85282061  0.70832889  0.87733378    -0.01600
C3152       C  0.83809875  0.68678081  0.87472917    -0.09200
C3153       C  0.87027922  0.65283045  0.82567636     0.65100
H3154       H  0.89391512  0.69735702  0.83424023     0.10500
C3155       C  0.84707709  0.72607417  0.89680372     0.63500
H3156       H  0.82222835  0.68368173  0.88574194     0.07900
F3157       F  0.75635247  0.61787146  0.81230546    -0.19600
F3158       F  0.77319283  0.65490638  0.80376783    -0.15800
F3159       F  0.74441504  0.65273827  0.83112178    -0.19300
F3160       F  0.83276019  0.63156526  0.91036104    -0.22700
F3161       F  0.86449829  0.63673868  0.88593231    -0.24100
F3162       F  0.84791956  0.59882723  0.89069730    -0.18100
F3163       F  0.83651368  0.74789365  0.88866489    -0.20600
F3164       F  0.86878661  0.73160702  0.90847848    -0.21800
F3165       F  0.83041222  0.71567789  0.91202616    -0.19000
F3166       F  0.89187599  0.65891899  0.81405399    -0.19100
F3167       F  0.85110648  0.65055581  0.81015908    -0.22900
F3168       F  0.87401350  0.63002419  0.83617488    -0.24500
C3169       C  0.67690869  0.62125857  0.75358258    -0.11300
C3170       C  0.68323978  0.64664242  0.75378849     0.11300
C3171       C  0.69291599  0.65749342  0.77374103    -0.03100
C3172       C  0.69407168  0.64286967  0.79340908    -0.05800
C3173       C  0.68696899  0.61748835  0.79361450    -0.16600
C3174       C  0.67895368  0.60617429  0.77290938     0.02300
C3175       C  0.67537895  0.66143618  0.73386044     0.12300
C3176       C  0.70229271  0.68421534  0.77521956     0.62900
H3177       H  0.70077287  0.65156308  0.80880875     0.12300
C3178       C  0.67188709  0.57864506  0.77073506     0.55000
H3179       H  0.66943716  0.61353546  0.73805512     0.08100
C3180       C  0.68374327  0.65585552  0.71168024    -0.05700
C3181       C  0.66931718  0.66400862  0.69325550    -0.06500
C3182       C  0.64740642  0.67801750  0.69648538    -0.16100
C3183       C  0.64117631  0.68652573  0.71847119    -0.01600
C3184       C  0.65506298  0.67766481  0.73689989    -0.09200
C3185       C  0.70710219  0.64073111  0.70666603     0.65100
H3186       H  0.67449534  0.65819733  0.67631258     0.10500
C3187       C  0.61949591  0.70419111  0.72271794     0.63500
H3188       H  0.64898709  0.68194287  0.75395824     0.07900
F3189       F  0.69236039  0.56376864  0.77562234    -0.19600
F3190       F  0.66416334  0.57250772  0.74907859    -0.15800
F3191       F  0.65239141  0.57311465  0.78524491    -0.19300
F3192       F  0.68672342  0.69786416  0.78925545    -0.22700
F3193       F  0.70342786  0.69593396  0.75442627    -0.24100
F3194       F  0.72614110  0.68424719  0.78425624    -0.18100
F3195       F  0.59724248  0.69110476  0.72235213    -0.20600
F3196       F  0.61902892  0.72264819  0.70634109    -0.21800
F3197       F  0.62170918  0.71578917  0.74355790    -0.19000
F3198       F  0.72200061  0.65389203  0.69174331    -0.19100
F3199       F  0.70044985  0.61823286  0.69680882    -0.22900
F3200       F  0.72117557  0.63589553  0.72578375    -0.24500
C3201       C  0.73671973  0.48317277  0.77622743    -0.11300
C3202       C  0.74271991  0.49907030  0.75816425     0.11300
C3203       C  0.74725285  0.52479928  0.76241911    -0.03100
C3204       C  0.74412522  0.53399271  0.78457442    -0.05800
C3205       C  0.73613727  0.51840665  0.80217081    -0.16600
C3206       C  0.73344441  0.49245020  0.79829171     0.02300
C3207       C  0.73910060  0.48926256  0.73484812     0.12300
C3208       C  0.75446686  0.54262730  0.74352864     0.62900
H3209       H  0.74608677  0.55381207  0.78798747     0.12300
C3210       C  0.72636329  0.47485793  0.81730535     0.55000
H3211       H  0.73287520  0.46368205  0.77262556     0.08100
C3212       C  0.75602117  0.47271938  0.72405146    -0.05700
C3213       C  0.74950466  0.46266687  0.70274140    -0.06500
C3214       C  0.72667526  0.46861993  0.69218397    -0.16100
C3215       C  0.71040913  0.48624099  0.70268921    -0.01600
C3216       C  0.71668405  0.49559159  0.72410195    -0.09200
C3217       C  0.78058929  0.46553415  0.73512121     0.65100
H3218       H  0.76180527  0.44933926  0.69455685     0.10500
C3219       C  0.68660147  0.49568788  0.69148557     0.63500
H3220       H  0.70379837  0.50786135  0.73291622     0.07900
F3221       F  0.72808111  0.45003824  0.81075357    -0.19600
F3222       F  0.70206197  0.47951159  0.82401895    -0.15800
F3223       F  0.74228819  0.47846523  0.83544532    -0.19300
F3224       F  0.73524759  0.54473600  0.72805118    -0.22700
F3225       F  0.77555638  0.53380436  0.73263227    -0.24100
F3226       F  0.75963677  0.56635532  0.75166625    -0.18100
F3227       F  0.67751136  0.51698798  0.70203537    -0.20600
F3228       F  0.66822133  0.47758560  0.69253975    -0.21800
F3229       F  0.69127988  0.50174446  0.66916016    -0.19000
F3230       F  0.79493318  0.45037487  0.72123189    -0.19100
F3231       F  0.77613180  0.45269943  0.75497401    -0.22900
F3232       F  0.79423161  0.48680831  0.73994328    -0.24500
C3233       C  0.64333962  0.46550331  0.89666567    -0.11300
C3234       C  0.65453505  0.44437943  0.88692952     0.11300
C3235       C  0.67853374  0.44628766  0.87699489    -0.03100
C3236       C  0.69000581  0.46986966  0.87609134    -0.05800
C3237       C  0.67755445  0.49151796  0.88342834    -0.16600
C3238       C  0.65452963  0.48922757  0.89515196     0.02300
C3239       C  0.63928095  0.42154912  0.88404150     0.12300
C3240       C  0.69108437  0.42393805  0.86576397     0.62900
H3241       H  0.70783928  0.47187025  0.86769395     0.12300
C3242       C  0.64160311  0.51163458  0.90576537     0.55000
H3243       H  0.62499117  0.46355189  0.90419215     0.08100
C3244       C  0.63886980  0.40201981  0.90004219    -0.05700
C3245       C  0.62785678  0.37913932  0.89380990    -0.06500
C3246       C  0.61603818  0.37599849  0.87272814    -0.16100
C3247       C  0.61348647  0.39699921  0.85806938    -0.01600
C3248       C  0.62565811  0.41932188  0.86396238    -0.09200
C3249       C  0.64971240  0.40557663  0.92352411     0.65100
H3250       H  0.62874509  0.36335840  0.90524706     0.10500
C3251       C  0.59872023  0.39609117  0.83605793     0.63500
H3252       H  0.62541207  0.43515288  0.85254887     0.07900
F3253       F  0.65884676  0.52600101  0.91737991    -0.19600
F3254       F  0.62335441  0.50432025  0.92096642    -0.15800
F3255       F  0.63032273  0.52597359  0.88921913    -0.19300
F3256       F  0.67731443  0.41645397  0.84717841    -0.22700
F3257       F  0.69278548  0.40424342  0.88077564    -0.24100
F3258       F  0.71501119  0.42955024  0.85849596    -0.18100
F3259       F  0.57392857  0.39091736  0.84067002    -0.20600
F3260       F  0.60831094  0.37794139  0.82181569    -0.21800
F3261       F  0.59946572  0.41865326  0.82459731    -0.19000
F3262       F  0.64664784  0.38446934  0.93676352    -0.19100
F3263       F  0.63768599  0.42529559  0.93410179    -0.22900
F3264       F  0.67493767  0.41080848  0.92224277    -0.24500
C3265       C  0.80952145  0.65955564  0.11548984    -0.11300
C3266       C  0.82689646  0.65529457  0.13273439     0.11300
C3267       C  0.82280719  0.63568845  0.14837821    -0.03100
C3268       C  0.80091573  0.62112327  0.14631118    -0.05800
C3269       C  0.78300551  0.62606712  0.12947670    -0.16600
C3270       C  0.78783735  0.64508124  0.11325090     0.02300
C3271       C  0.84748637  0.67376970  0.13491722     0.12300
C3272       C  0.84110569  0.63068169  0.16745178     0.62900
H3273       H  0.79709984  0.60646742  0.15844345     0.12300
C3274       C  0.77043362  0.65026798  0.09344563     0.55000
H3275       H  0.81281217  0.67499612  0.10402321     0.08100
C3276       C  0.86760913  0.67477343  0.11934634    -0.05700
C3277       C  0.88285312  0.69625748  0.11899621    -0.06500
C3278       C  0.87808907  0.71671408  0.13327643    -0.16100
C3279       C  0.85920496  0.71478329  0.15004855    -0.01600
C3280       C  0.84408896  0.69333582  0.15040702    -0.09200
C3281       C  0.87239374  0.65365220  0.10267899     0.65100
H3282       H  0.89756540  0.69793041  0.10651991     0.10500
C3283       C  0.85429152  0.73552236  0.16710604     0.63500
H3284       H  0.82835277  0.69243340  0.16190047     0.07900
F3285       F  0.78165888  0.66527728  0.07732265    -0.19600
F3286       F  0.74918515  0.66245377  0.10096445    -0.15800
F3287       F  0.76384806  0.62807375  0.08298392    -0.19300
F3288       F  0.84113071  0.65061037  0.18236090    -0.22700
F3289       F  0.86491589  0.62753890  0.15885547    -0.24100
F3290       F  0.83493609  0.60930540  0.17938225    -0.18100
F3291       F  0.83993979  0.72713547  0.18502814    -0.20600
F3292       F  0.84161633  0.75496824  0.15681488    -0.21800
F3293       F  0.87659288  0.74428616  0.17585462    -0.19000
F3294       F  0.89399763  0.65752792  0.09030760    -0.19100
F3295       F  0.85272477  0.65169303  0.08765285    -0.22900
F3296       F  0.87495535  0.63131322  0.11417493    -0.24500
C3297       C  0.64653105  0.47185488  0.10153360    -0.11300
C3298       C  0.65900010  0.45087045  0.11014318     0.11300
C3299       C  0.68320567  0.45362223  0.11949192    -0.03100
C3300       C  0.69314947  0.47786137  0.12183266    -0.05800
C3301       C  0.67962566  0.49911766  0.11512775    -0.16600
C3302       C  0.65650747  0.49604721  0.10369155     0.02300
C3303       C  0.64534266  0.42671949  0.11121026     0.12300
C3304       C  0.69803012  0.43110751  0.12761765     0.62900
H3305       H  0.71095948  0.48051261  0.13019883     0.12300
C3306       C  0.64152885  0.51736949  0.09353097     0.55000
H3307       H  0.62832815  0.46940088  0.09378632     0.08100
C3308       C  0.62915825  0.42132274  0.12945887    -0.05700
C3309       C  0.61869101  0.39733023  0.13093417    -0.06500
C3310       C  0.62366811  0.37862698  0.11477248    -0.16100
C3311       C  0.63839393  0.38471857  0.09554686    -0.01600
C3312       C  0.64908320  0.40880467  0.09417731    -0.09200
C3313       C  0.62331979  0.44072545  0.14755924     0.65100
H3314       H  0.60719747  0.39272456  0.14539632     0.10500
C3315       C  0.64254050  0.36624446  0.07639628     0.63500
H3316       H  0.66104336  0.41364893  0.08008148     0.07900
F3317       F  0.61907346  0.51956699  0.10490842    -0.19600
F3318       F  0.63662544  0.51210046  0.07105062    -0.15800
F3319       F  0.65380605  0.54006779  0.09438290    -0.19300
F3320       F  0.70212384  0.41493479  0.10973322    -0.22700
F3321       F  0.68500495  0.41867899  0.14435747    -0.24100
F3322       F  0.72103612  0.43794643  0.13634218    -0.18100
F3323       F  0.65280270  0.37768913  0.05758284    -0.20600
F3324       F  0.61996966  0.35585009  0.06999882    -0.21800
F3325       F  0.65868922  0.34752207  0.08324302    -0.19000
F3326       F  0.60747436  0.43142319  0.16401564    -0.19100
F3327       F  0.61180720  0.46122179  0.13783456    -0.22900
F3328       F  0.64508980  0.44836576  0.15805527    -0.24500
C3329       C  0.73283170  0.60318014  0.97200399    -0.11300
C3330       C  0.72075210  0.58423697  0.98417567     0.11300
C3331       C  0.70850100  0.56462882  0.97252211    -0.03100
C3332       C  0.70909279  0.56451154  0.94878276    -0.05800
C3333       C  0.72093219  0.58358887  0.93655068    -0.16600
C3334       C  0.73328490  0.60315272  0.94822162     0.02300
C3335       C  0.72039370  0.58591330  0.00917561     0.12300
C3336       C  0.69458065  0.54415261  0.98509726     0.62900
H3337       H  0.69978348  0.54974223  0.93949497     0.12300
C3338       C  0.74737447  0.62350143  0.93569165     0.55000
H3339       H  0.74174706  0.61813817  0.98136013     0.08100
C3340       C  0.74079868  0.57807351  0.02259241    -0.05700
C3341       C  0.73863285  0.57955638  0.04624359    -0.06500
C3342       C  0.71685424  0.58866666  0.05678621    -0.16100
C3343       C  0.69637624  0.59657812  0.04312184    -0.01600
C3344       C  0.69882933  0.59537518  0.01948217    -0.09200
C3345       C  0.76476032  0.56832887  0.01195101     0.65100
H3346       H  0.75420983  0.57385059  0.05672968     0.10500
C3347       C  0.67168172  0.60551354  0.05305784     0.63500
H3348       H  0.68371274  0.60159429  0.00867113     0.07900
F3349       F  0.76093759  0.63850163  0.95030210    -0.19600
F3350       F  0.73070626  0.63858285  0.92414969    -0.15800
F3351       F  0.76393222  0.61282768  0.92049986    -0.19300
F3352       F  0.67440193  0.55431746  0.99646077    -0.22700
F3353       F  0.71027593  0.53270760  0.00051379    -0.24100
F3354       F  0.68565398  0.52592516  0.97055102    -0.18100
F3355       F  0.67484832  0.62846413  0.06347218    -0.20600
F3356       F  0.66295106  0.58827717  0.06857652    -0.21800
F3357       F  0.65347609  0.60835483  0.03661225    -0.19000
F3358       F  0.78164558  0.56015440  0.02807886    -0.19100
F3359       F  0.77599861  0.58715288  0.99962662    -0.22900
F3360       F  0.75956239  0.54845780  0.99773561    -0.24500
C3361       C  0.65781352  0.66145978  0.22076071    -0.11300
C3362       C  0.67721331  0.66123257  0.23674030     0.11300
C3363       C  0.70069941  0.65079437  0.23081668    -0.03100
C3364       C  0.70343013  0.63966759  0.20941352    -0.05800
C3365       C  0.68350856  0.63858116  0.19408140    -0.16600
C3366       C  0.66070674  0.65061825  0.19929101     0.02300
C3367       C  0.67029569  0.66708755  0.26042637     0.12300
C3368       C  0.72258952  0.64920301  0.24705599     0.62900
H3369       H  0.72103391  0.63093809  0.20492692     0.12300
C3370       C  0.63950183  0.65170534  0.18229935     0.55000
H3371       H  0.63978128  0.66886778  0.22574380     0.08100
C3372       C  0.66352910  0.69147510  0.26763357    -0.05700
C3373       C  0.65234324  0.69433655  0.28901377    -0.06500
C3374       C  0.64803773  0.67366211  0.30300237    -0.16100
C3375       C  0.65693558  0.64977989  0.29670836    -0.01600
C3376       C  0.66786758  0.64682727  0.27532254    -0.09200
C3377       C  0.66814456  0.71423451  0.25289517     0.65100
H3378       H  0.64578248  0.71252892  0.29452363     0.10500
C3379       C  0.65419880  0.62750257  0.31237838     0.63500
H3380       H  0.67343798  0.62839132  0.26957004     0.07900
F3381       F  0.61956072  0.66575657  0.19019500    -0.19600
F3382       F  0.63100287  0.62787434  0.17779212    -0.15800
F3383       F  0.64789650  0.66244719  0.16244716    -0.19300
F3384       F  0.72434809  0.62506214  0.25528146    -0.22700
F3385       F  0.72027211  0.66556048  0.26507034    -0.24100
F3386       F  0.74452597  0.65498993  0.23585784    -0.18100
F3387       F  0.62919567  0.62204243  0.31537293    -0.20600
F3388       F  0.66477347  0.63302633  0.33313559    -0.21800
F3389       F  0.66594849  0.60641370  0.30384351    -0.19000
F3390       F  0.66236189  0.73626026  0.26410304    -0.19100
F3391       F  0.65367762  0.71312925  0.23358201    -0.22900
F3392       F  0.69308403  0.71507047  0.24683260    -0.24500
C3393       C  0.72939069  0.52619487  0.23814254    -0.11300
C3394       C  0.74378482  0.50444175  0.23592068     0.11300
C3395       C  0.75471530  0.49867989  0.21470567    -0.03100
C3396       C  0.74901893  0.51389240  0.19595767    -0.05800
C3397       C  0.73300910  0.53467815  0.19783030    -0.16600
C3398       C  0.72419128  0.54175887  0.21964281     0.02300
C3399       C  0.74228679  0.48628758  0.25486881     0.12300
C3400       C  0.77186263  0.47649762  0.21075021     0.62900
H3401       H  0.75620991  0.50867469  0.17946908     0.12300
C3402       C  0.70886850  0.56528162  0.22368474     0.55000
H3403       H  0.72088723  0.53016652  0.25439431     0.08100
C3404       C  0.75435604  0.49019544  0.27583825    -0.05700
C3405       C  0.74758496  0.47513040  0.29437862    -0.06500
C3406       C  0.72923828  0.45638086  0.29249225    -0.16100
C3407       C  0.71889933  0.45108512  0.27081162    -0.01600
C3408       C  0.72553180  0.46638138  0.25245267    -0.09200
C3409       C  0.77435600  0.51007699  0.27846550     0.65100
H3410       H  0.75581159  0.47872538  0.31078765     0.10500
C3411       C  0.70081733  0.42963975  0.26672739     0.63500
H3412       H  0.71669131  0.46368518  0.23614784     0.07900
F3413       F  0.70875406  0.57201297  0.24630567    -0.19600
F3414       F  0.68438833  0.56148711  0.21704982    -0.15800
F3415       F  0.71898928  0.58491907  0.21165705    -0.19300
F3416       F  0.76056222  0.46002564  0.19589661    -0.22700
F3417       F  0.77771525  0.46378399  0.23038612    -0.24100
F3418       F  0.79397158  0.48481623  0.20128034    -0.18100
F3419       F  0.69787782  0.42475120  0.24387905    -0.20600
F3420       F  0.67757712  0.43551630  0.27547329    -0.21800
F3421       F  0.70972458  0.40805292  0.27677597    -0.19000
F3422       F  0.78505677  0.50960272  0.29977508    -0.19100
F3423       F  0.76426219  0.53358941  0.27512029    -0.22900
F3424       F  0.79303863  0.50600252  0.26272262    -0.24500
C3425       C  0.36640966  0.82033595  0.87396065    -0.11300
C3426       C  0.34747679  0.81963244  0.85752871     0.11300
C3427       C  0.34820470  0.80104512  0.84047863    -0.03100
C3428       C  0.36659820  0.78228227  0.84176781    -0.05800
C3429       C  0.38407155  0.78146353  0.85950881    -0.16600
C3430       C  0.38468513  0.80131514  0.87542484     0.02300
C3431       C  0.32566467  0.83678966  0.85994982     0.12300
C3432       C  0.32898683  0.80044043  0.82156505     0.62900
H3433       H  0.36653705  0.76708541  0.82962503     0.12300
C3434       C  0.40344486  0.80157973  0.89464503     0.55000
H3435       H  0.36573817  0.83507651  0.88652802     0.08100
C3436       C  0.30554936  0.83084185  0.87448301    -0.05700
C3437       C  0.28460960  0.84669305  0.87488353    -0.06500
C3438       C  0.28290828  0.86831224  0.86134660    -0.16100
C3439       C  0.30363099  0.87481283  0.84746904    -0.01600
C3440       C  0.32470116  0.85879629  0.84706785    -0.09200
C3441       C  0.30606465  0.80768071  0.88942490     0.65100
H3442       H  0.26915474  0.84212534  0.88592570     0.10500
C3443       C  0.30354552  0.89809724  0.83281650     0.63500
H3444       H  0.34056149  0.86309228  0.83640259     0.07900
F3445       F  0.40052714  0.78044394  0.90784527    -0.19600
F3446       F  0.40049330  0.82235453  0.90840971    -0.15800
F3447       F  0.42740733  0.80204285  0.88592775    -0.19300
F3448       F  0.33020652  0.82238804  0.80929533    -0.22700
F3449       F  0.30523025  0.79793367  0.83044696    -0.24100
F3450       F  0.33306786  0.78070597  0.80681807    -0.18100
F3451       F  0.32481107  0.89970846  0.81957284    -0.20600
F3452       F  0.30264370  0.91916319  0.84639678    -0.21800
F3453       F  0.28307444  0.89780032  0.81853516    -0.19000
F3454       F  0.28418437  0.80497445  0.90167190    -0.19100
F3455       F  0.32559150  0.80935662  0.90463704    -0.22900
F3456       F  0.30914036  0.78644859  0.87634128    -0.24500
C3457       C  0.50922539  0.71505411  0.77301393    -0.11300
C3458       C  0.50682213  0.73918705  0.76421298     0.11300
C3459       C  0.49157411  0.75691051  0.77550055    -0.03100
C3460       C  0.47867265  0.74943883  0.79523589    -0.05800
C3461       C  0.48027227  0.72479983  0.80353255    -0.16600
C3462       C  0.49664272  0.70750038  0.79261090     0.02300
C3463       C  0.51853496  0.74345454  0.74175037     0.12300
C3464       C  0.48858775  0.78329911  0.76647591     0.62900
H3465       H  0.46642894  0.76252241  0.80379747     0.12300
C3466       C  0.50110693  0.68099480  0.80119050     0.55000
H3467       H  0.52063405  0.70173218  0.76379251     0.08100
C3468       C  0.54484753  0.74455980  0.73914104    -0.05700
C3469       C  0.55519128  0.73987147  0.71765097    -0.06500
C3470       C  0.54011530  0.73371993  0.69908398    -0.16100
C3471       C  0.51380540  0.73464993  0.70125745    -0.01600
C3472       C  0.50340968  0.73974360  0.72264180    -0.09200
C3473       C  0.56199173  0.74911970  0.75919841     0.65100
H3474       H  0.57524359  0.73925210  0.71553469     0.10500
C3475       C  0.49689078  0.72815688  0.68151430     0.63500
H3476       H  0.48338899  0.73846167  0.72504573     0.07900
F3477       F  0.52150777  0.66988391  0.79080690    -0.19600
F3478       F  0.48046355  0.66626673  0.79673390    -0.15800
F3479       F  0.50579157  0.68131399  0.82417712    -0.19300
F3480       F  0.47719814  0.78266991  0.74551643    -0.22700
F3481       F  0.51171549  0.79449302  0.76438572    -0.24100
F3482       F  0.47414705  0.79799273  0.78068901    -0.18100
F3483       F  0.50053674  0.70344087  0.67538033    -0.20600
F3484       F  0.50233094  0.74338248  0.66329610    -0.21800
F3485       F  0.47190201  0.73139421  0.68685270    -0.19000
F3486       F  0.58650140  0.75256888  0.75246213    -0.19100
F3487       F  0.56129390  0.72893915  0.77375712    -0.22900
F3488       F  0.55454443  0.77035145  0.77071202    -0.24500
C3489       C  0.32818280  0.67285522  0.71704213    -0.11300
C3490       C  0.33247522  0.65921185  0.73691088     0.11300
C3491       C  0.32686495  0.63337909  0.73741779    -0.03100
C3492       C  0.31912762  0.62164258  0.71738229    -0.05800
C3493       C  0.31739793  0.63455132  0.69667784    -0.16600
C3494       C  0.32075641  0.66102028  0.69672718     0.02300
C3495       C  0.34512316  0.67149607  0.75641089     0.12300
C3496       C  0.33001606  0.61798166  0.75885475     0.62900
H3497       H  0.31541395  0.60174883  0.71761723     0.12300
C3498       C  0.31738710  0.67678976  0.67559375     0.55000
H3499       H  0.33190598  0.69275343  0.71736674     0.08100
C3500       C  0.37140645  0.67401994  0.75704314    -0.05700
C3501       C  0.38285500  0.68033674  0.77764249    -0.06500
C3502       C  0.36907809  0.68374288  0.79775116    -0.16100
C3503       C  0.34246333  0.68343075  0.79650135    -0.01600
C3504       C  0.33102863  0.67756807  0.77562856    -0.09200
C3505       C  0.38739526  0.66913691  0.73622617     0.65100
H3506       H  0.40301459  0.68171076  0.77829877     0.10500
C3507       C  0.32599126  0.68807994  0.81700393     0.63500
H3508       H  0.31089515  0.67614835  0.77440864     0.07900
F3509       F  0.33443112  0.66956792  0.65924976    -0.19600
F3510       F  0.32101410  0.70200194  0.67985819    -0.15800
F3511       F  0.29333705  0.67393579  0.66741925    -0.19300
F3512       F  0.31395932  0.62673108  0.77537888    -0.22700
F3513       F  0.35435137  0.61966670  0.76656605    -0.24100
F3514       F  0.32472990  0.59293548  0.75532227    -0.18100
F3515       F  0.30083082  0.68643484  0.81176207    -0.20600
F3516       F  0.33030278  0.71185395  0.82539527    -0.21800
F3517       F  0.33103827  0.67046927  0.83351101    -0.19000
F3518       F  0.41264501  0.67174276  0.74074820    -0.19100
F3519       F  0.38120583  0.68598501  0.71941929    -0.22900
F3520       F  0.38348633  0.64507498  0.72839098    -0.24500
C3521       C  0.58782172  0.61904092  0.89658467    -0.11300
C3522       C  0.57446717  0.62770747  0.87771416     0.11300
C3523       C  0.58481074  0.62497738  0.85579818    -0.03100
C3524       C  0.60806668  0.61301392  0.85347794    -0.05800
C3525       C  0.62176327  0.60483519  0.87230981    -0.16600
C3526       C  0.61156285  0.60776708  0.89429193     0.02300
C3527       C  0.54991681  0.64023719  0.88117485     0.12300
C3528       C  0.57180865  0.63552785  0.83501137     0.62900
H3529       H  0.61635593  0.61096665  0.83686356     0.12300
C3530       C  0.62545031  0.59874604  0.91512593     0.55000
H3531       H  0.57963960  0.62160661  0.91317517     0.08100
C3532       C  0.52734188  0.62664352  0.88207913    -0.05700
C3533       C  0.50459863  0.63990413  0.88155796    -0.06500
C3534       C  0.50369020  0.66622903  0.87984523    -0.16100
C3535       C  0.52657493  0.67983837  0.88080781    -0.01600
C3536       C  0.54926894  0.66641492  0.88172259    -0.09200
C3537       C  0.52737316  0.59823052  0.88292920     0.65100
H3538       H  0.48721854  0.62958549  0.88146521     0.10500
C3539       C  0.52753534  0.70822989  0.87974384     0.63500
H3540       H  0.56694472  0.67624286  0.88158309     0.07900
F3541       F  0.61079566  0.60031441  0.93436787    -0.19600
F3542       F  0.64652401  0.61317314  0.91854885    -0.15800
F3543       F  0.63246466  0.57403831  0.91231332    -0.19300
F3544       F  0.57077405  0.66131424  0.83654782    -0.22700
F3545       F  0.54779354  0.62624626  0.83336891    -0.24100
F3546       F  0.58433734  0.62941894  0.81527286    -0.18100
F3547       F  0.55177650  0.71716239  0.88088404    -0.20600
F3548       F  0.51447856  0.71828855  0.89777997    -0.21800
F3549       F  0.51728481  0.71651528  0.85962904    -0.19000
F3550       F  0.50338966  0.58858677  0.88350822    -0.19100
F3551       F  0.53978512  0.59027319  0.90212056    -0.22900
F3552       F  0.53929541  0.58858291  0.86409111    -0.24500
C3553       C  0.38815480  0.57533692  0.88753668    -0.11300
C3554       C  0.36312848  0.57159177  0.88141038     0.11300
C3555       C  0.34792572  0.59237716  0.87586442    -0.03100
C3556       C  0.35905467  0.61611747  0.87459851    -0.05800
C3557       C  0.38477012  0.61947419  0.87826160    -0.16600
C3558       C  0.39948764  0.59899785  0.88574920     0.02300
C3559       C  0.35434051  0.54552196  0.87807405     0.12300
C3560       C  0.32033669  0.58932750  0.87048225     0.62900
H3561       H  0.34799202  0.63206466  0.86932559     0.12300
C3562       C  0.42693096  0.60190416  0.89173103     0.55000
H3563       H  0.39917633  0.55915821  0.89227398     0.08100
C3564       C  0.36013254  0.53226336  0.85799982    -0.05700
C3565       C  0.35066278  0.50799293  0.85523177    -0.06500
C3566       C  0.33530528  0.49676689  0.87156391    -0.16100
C3567       C  0.32967683  0.50996189  0.89178584    -0.01600
C3568       C  0.33967856  0.53415107  0.89481321    -0.09200
C3569       C  0.37594088  0.54386757  0.83937906     0.65100
H3570       H  0.35464179  0.49775774  0.83982355     0.10500
C3571       C  0.31349110  0.49857611  0.91014137     0.63500
H3572       H  0.33569985  0.54464745  0.91007173     0.07900
F3573       F  0.44070075  0.60711733  0.87256377    -0.19600
F3574       F  0.43660877  0.58034847  0.90131582    -0.15800
F3575       F  0.42981871  0.62110165  0.90715192    -0.19300
F3576       F  0.30805327  0.57980215  0.88912557    -0.22700
F3577       F  0.31728540  0.57314761  0.85243608    -0.24100
F3578       F  0.30920131  0.61189246  0.86489179    -0.18100
F3579       F  0.31350478  0.51298620  0.92961397    -0.20600
F3580       F  0.32233364  0.47502800  0.91565527    -0.21800
F3581       F  0.28909434  0.49672750  0.90265216    -0.19000
F3582       F  0.37784396  0.52836960  0.82068382    -0.19100
F3583       F  0.39981997  0.54832588  0.84728871    -0.22900
F3584       F  0.36541556  0.56619367  0.83237374    -0.24500
C3585       C  0.35525691  0.80894912  0.15226582    -0.11300
C3586       C  0.34274453  0.81504518  0.13213411     0.11300
C3587       C  0.34787183  0.80139785  0.11212731    -0.03100
C3588       C  0.36401393  0.78071345  0.11339875    -0.05800
C3589       C  0.37505918  0.77346577  0.13387111    -0.16600
C3590       C  0.37114613  0.78794939  0.15358780     0.02300
C3591       C  0.32157627  0.83299329  0.13320253     0.12300
C3592       C  0.33573766  0.80820277  0.08972333     0.62900
H3593       H  0.36759091  0.76946957  0.09848049     0.12300
C3594       C  0.38228560  0.78021416  0.17610388     0.55000
H3595       H  0.35110609  0.81979456  0.16728977     0.08100
C3596       C  0.29764429  0.82498608  0.14026067    -0.05700
C3597       C  0.27761803  0.84186930  0.13898885    -0.06500
C3598       C  0.28058896  0.86636510  0.13081916    -0.16100
C3599       C  0.30482381  0.87469734  0.12448809    -0.01600
C3600       C  0.32501928  0.85771275  0.12590689    -0.09200
C3601       C  0.29315755  0.79847240  0.14866349     0.65100
H3602       H  0.25916802  0.83585968  0.14414939     0.10500
C3603       C  0.30931053  0.90092130  0.11553571     0.63500
H3604       H  0.34360676  0.86336683  0.12082882     0.07900
F3605       F  0.37418667  0.75643082  0.18162935    -0.19600
F3606       F  0.37531752  0.79630154  0.19336529    -0.15800
F3607       F  0.40806989  0.78023883  0.17471903    -0.19300
F3608       F  0.34280162  0.83210102  0.08357008    -0.22700
F3609       F  0.31000696  0.80730575  0.09161108    -0.24100
F3610       F  0.34278123  0.79200777  0.07256282    -0.18100
F3611       F  0.33372712  0.90417354  0.10839567    -0.20600
F3612       F  0.30461663  0.91824721  0.13240098    -0.21800
F3613       F  0.29377689  0.90552093  0.09730114    -0.19000
F3614       F  0.26824983  0.79427950  0.15365485    -0.19100
F3615       F  0.30684769  0.79429420  0.16811098    -0.22900
F3616       F  0.30026810  0.78133806  0.13234141    -0.24500
C3617       C  0.57475735  0.61341214  0.12715475    -0.11300
C3618       C  0.57209041  0.63377782  0.11255341     0.11300
C3619       C  0.59285082  0.64238709  0.10005918    -0.03100
C3620       C  0.61617156  0.63080585  0.10352477    -0.05800
C3621       C  0.61923627  0.61101225  0.11900414    -0.16600
C3622       C  0.59779646  0.60134822  0.13033430     0.02300
C3623       C  0.54790945  0.64725568  0.11316304     0.12300
C3624       C  0.59047460  0.66408268  0.08363842     0.62900
H3625       H  0.63243444  0.63776907  0.09466879     0.12300
C3626       C  0.59877426  0.57889476  0.14615134     0.55000
H3627       H  0.55851311  0.60753172  0.13667160     0.08100
C3628       C  0.52593286  0.63735067  0.10328137    -0.05700
C3629       C  0.50293425  0.64901125  0.10803556    -0.06500
C3630       C  0.50148351  0.66977922  0.12247603    -0.16100
C3631       C  0.52349831  0.67993684  0.13202598    -0.01600
C3632       C  0.54646279  0.66847273  0.12706455    -0.09200
C3633       C  0.52666011  0.61408864  0.08851689     0.65100
H3634       H  0.48573939  0.64140132  0.10126326     0.10500
C3635       C  0.52252842  0.70175409  0.14851622     0.63500
H3636       H  0.56344841  0.67520560  0.13494321     0.07900
F3637       F  0.60674605  0.55804329  0.13433384    -0.19600
F3638       F  0.57558906  0.57335689  0.15522727    -0.15800
F3639       F  0.61482105  0.58345600  0.16398106    -0.19300
F3640       F  0.58476284  0.68579663  0.09525782    -0.22700
F3641       F  0.57173154  0.65924714  0.06817146    -0.24100
F3642       F  0.61240116  0.66802007  0.07175239    -0.18100
F3643       F  0.50766961  0.69559169  0.16680212    -0.20600
F3644       F  0.51273282  0.72260744  0.13791012    -0.21800
F3645       F  0.54599315  0.70792243  0.15663273    -0.19000
F3646       F  0.50364526  0.60923368  0.07878387    -0.19100
F3647       F  0.53335554  0.59354322  0.10132196    -0.22900
F3648       F  0.54384790  0.61712828  0.07131217    -0.24500
C3649       C  0.36938114  0.57860796  0.09769031    -0.11300
C3650       C  0.36961871  0.56126426  0.11545446     0.11300
C3651       C  0.38151034  0.56741159  0.13610290    -0.03100
C3652       C  0.39149558  0.59151601  0.13871515    -0.05800
C3653       C  0.38957493  0.60965106  0.12161116    -0.16600
C3654       C  0.37912962  0.60290664  0.10042397     0.02300
C3655       C  0.35645370  0.53707170  0.11252513     0.12300
C3656       C  0.38336876  0.54868713  0.15539442     0.62900
H3657       H  0.40013895  0.59669361  0.15459642     0.12300
C3658       C  0.37861238  0.62101923  0.08070759     0.55000
H3659       H  0.36071195  0.57319297  0.08187912     0.08100
C3660       C  0.33048643  0.53480756  0.11661269    -0.05700
C3661       C  0.31994354  0.51076039  0.11742277    -0.06500
C3662       C  0.33468249  0.48919166  0.11489849    -0.16100
C3663       C  0.36029599  0.49159905  0.10898999    -0.01600
C3664       C  0.37066786  0.51571156  0.10763824    -0.09200
C3665       C  0.31427470  0.55762671  0.12116539     0.65100
H3666       H  0.30037875  0.50858721  0.12164045     0.10500
C3667       C  0.37689440  0.46898897  0.10467096     0.63500
H3668       H  0.39039691  0.51802071  0.10413885     0.07900
F3669       F  0.36119950  0.63963491  0.08468595    -0.19600
F3670       F  0.37228722  0.60914100  0.06069836    -0.15800
F3671       F  0.40196339  0.63164883  0.07790587    -0.19300
F3672       F  0.39804266  0.52864928  0.14882885    -0.22700
F3673       F  0.35988380  0.54008049  0.16120172    -0.24100
F3674       F  0.39400034  0.55915048  0.17453373    -0.18100
F3675       F  0.39903413  0.47570887  0.09422789    -0.20600
F3676       F  0.36481532  0.45212808  0.09072275    -0.21800
F3677       F  0.38277705  0.45745273  0.12488846    -0.19000
F3678       F  0.28957213  0.55120363  0.12493448    -0.19100
F3679       F  0.31500792  0.57351851  0.10276930    -0.22900
F3680       F  0.32288805  0.57019004  0.14006619    -0.24500
C3681       C  0.40371963  0.69519083  0.97593288    -0.11300
C3682       C  0.41393788  0.71550176  0.98766165     0.11300
C3683       C  0.42501224  0.73537414  0.97545709    -0.03100
C3684       C  0.42475456  0.73451036  0.95161849    -0.05800
C3685       C  0.41384238  0.71448522  0.93975985    -0.16600
C3686       C  0.40335332  0.69427460  0.95215915     0.02300
C3687       C  0.41353189  0.71475722  0.01280951     0.12300
C3688       C  0.43701258  0.75734163  0.98760232     0.62900
H3689       H  0.43298028  0.74962366  0.94200010     0.12300
C3690       C  0.39274698  0.67127893  0.94052949     0.55000
H3691       H  0.39594032  0.67995644  0.98570695     0.08100
C3692       C  0.39180406  0.72079084  0.02538329    -0.05700
C3693       C  0.39263919  0.71889072  0.04910831    -0.06500
C3694       C  0.41435068  0.71116450  0.06047564    -0.16100
C3695       C  0.43594522  0.70470498  0.04786953    -0.01600
C3696       C  0.43505485  0.70647649  0.02412342    -0.09200
C3697       C  0.36779087  0.72891814  0.01378632     0.65100
H3698       H  0.37624816  0.72342966  0.05905938     0.10500
C3699       C  0.45949593  0.69519554  0.05935774     0.63500
H3700       H  0.45120105  0.70133728  0.01409058     0.07900
F3701       F  0.37094921  0.67739972  0.92927170    -0.19600
F3702       F  0.38722775  0.65242588  0.95575260    -0.15800
F3703       F  0.41002109  0.66199010  0.92532388    -0.19300
F3704       F  0.45673701  0.74905875  0.00070467    -0.22700
F3705       F  0.41965094  0.76898036  0.00137517    -0.24100
F3706       F  0.44615076  0.77493617  0.97259081    -0.18100
F3707       F  0.47728580  0.68748429  0.04383909    -0.20600
F3708       F  0.45378995  0.67502167  0.07303550    -0.21800
F3709       F  0.46988660  0.71400758  0.07234699    -0.19000
F3710       F  0.34944388  0.73541371  0.02923502    -0.19100
F3711       F  0.35870173  0.70959921  0.00060963    -0.22900
F3712       F  0.37224734  0.74944472  0.00020183    -0.24500
C3713       C  0.53961819  0.72928490  0.25553086    -0.11300
C3714       C  0.51606822  0.74067822  0.25772912     0.11300
C3715       C  0.50854719  0.74992665  0.27917471    -0.03100
C3716       C  0.52363390  0.74489511  0.29809599    -0.05800
C3717       C  0.54587285  0.73113686  0.29614820    -0.16600
C3718       C  0.55512794  0.72523757  0.27435180     0.02300
C3719       C  0.49808270  0.73717825  0.23883829     0.12300
C3720       C  0.48431015  0.76395676  0.28327148     0.62900
H3721       H  0.51707359  0.75034299  0.31473451     0.12300
C3722       C  0.58073007  0.71370622  0.27073272     0.55000
H3723       H  0.54531783  0.72218933  0.23913890     0.08100
C3724       C  0.49949832  0.75043349  0.21823024    -0.05700
C3725       C  0.48385645  0.74309847  0.20019729    -0.06500
C3726       C  0.46658217  0.72333302  0.20237329    -0.16100
C3727       C  0.46372971  0.71172498  0.22395025    -0.01600
C3728       C  0.47991698  0.71865239  0.24157380    -0.09200
C3729       C  0.51698782  0.77254903  0.21561881     0.65100
H3730       H  0.48564375  0.75232776  0.18400261     0.10500
C3731       C  0.44395427  0.69202244  0.22882933     0.63500
H3732       H  0.47902839  0.70905054  0.25767749     0.07900
F3733       F  0.59048783  0.72102530  0.25009746    -0.19600
F3734       F  0.57890016  0.68792176  0.27104878    -0.15800
F3735       F  0.59724214  0.72138588  0.28734312    -0.19300
F3736       F  0.46891010  0.74967645  0.29687036    -0.22700
F3737       F  0.47165529  0.76961689  0.26355483    -0.24100
F3738       F  0.48947111  0.78622889  0.29424500    -0.18100
F3739       F  0.45061076  0.66951077  0.21894878    -0.20600
F3740       F  0.42101664  0.69980275  0.22061484    -0.21800
F3741       F  0.44122997  0.68789593  0.25181324    -0.19000
F3742       F  0.51466261  0.78367060  0.19459762    -0.19100
F3743       F  0.54152001  0.76498392  0.21819107    -0.22900
F3744       F  0.51143543  0.79030628  0.23190474    -0.24500
C3745       C  0.34204597  0.64689246  0.22574063    -0.11300
C3746       C  0.32916115  0.66754642  0.23452041     0.11300
C3747       C  0.32956748  0.69061025  0.22279018    -0.03100
C3748       C  0.34443639  0.69254525  0.20324897    -0.05800
C3749       C  0.35867712  0.67223360  0.19533157    -0.16600
C3750       C  0.35656487  0.64865010  0.20613510     0.02300
C3751       C  0.31965801  0.66459773  0.25779143     0.12300
C3752       C  0.31500098  0.71359439  0.23010542     0.62900
H3753       H  0.34555692  0.71033730  0.19452312     0.12300
C3754       C  0.36916160  0.62523948  0.19696379     0.55000
H3755       H  0.34151543  0.62945978  0.23506985     0.08100
C3756       C  0.29802378  0.65043490  0.26260550    -0.05700
C3757       C  0.29466256  0.64142048  0.28471133    -0.06500
C3758       C  0.31255572  0.64582168  0.30157972    -0.16100
C3759       C  0.33282287  0.66210654  0.29725813    -0.01600
C3760       C  0.33591804  0.67138362  0.27530410    -0.09200
C3761       C  0.27946048  0.64377971  0.24418287     0.65100
H3762       H  0.27930581  0.62889712  0.28841026     0.10500
C3763       C  0.35246852  0.66909943  0.31464536     0.63500
H3764       H  0.35236733  0.68238384  0.27136929     0.07900
F3765       F  0.36070070  0.60382930  0.20764697    -0.19600
F3766       F  0.39470897  0.62657923  0.20016838    -0.15800
F3767       F  0.36396438  0.62286167  0.17417253    -0.19300
F3768       F  0.33146432  0.73284410  0.23471985    -0.22700
F3769       F  0.30045612  0.70957008  0.24905864    -0.24100
F3770       F  0.29936102  0.72089168  0.21268362    -0.18100
F3771       F  0.37532474  0.65937167  0.30810821    -0.20600
F3772       F  0.34698723  0.66049702  0.33608366    -0.21800
F3773       F  0.35434132  0.69487964  0.31576626    -0.19000
F3774       F  0.25855668  0.63197326  0.25286897    -0.19100
F3775       F  0.29047860  0.62791595  0.22861345    -0.22900
F3776       F  0.27169447  0.66531238  0.23330383    -0.24500
loop_ 
_geom_bond_atom_site_label_1 
_geom_bond_atom_site_label_2 
_geom_bond_distance 
_geom_bond_site_symmetry_2 
_ccdc_geom_bond_type 
Fe1          O17   2.070       .  S
Fe1           O7   2.060       .  S
Fe1          O14   2.071       .  S
Fe1           O6   2.061       .  S
Fe1          O12   1.979       .  S
Fe2           O5   2.051       .  S
Fe2           O9   2.063       .  S
Fe2          O13   2.054       .  S
Fe2          O18   2.058       .  S
Fe2          O12   1.969       .  S
Fe3          O21   2.085       .  S
Fe3           O8   2.064       .  S
Fe3          O15   2.065       .  S
Fe3           O4   2.083       .  S
Fe3          O12   1.981       .  S
O4           C11   1.274       .  A
O5           C19   1.264       .  A
O6           C11   1.272       .  A
O7           C10   1.266       .  A
O8           C20   1.268       .  A
O9           C22   1.271       .  A
C10          O15   1.265       .  A
C10        C3589   1.474       .  S
C11        C3694   1.481       .  S
O13          C16   1.264       .  A
O14          C16   1.266       .  A
C16        C3653   1.485       .  S
O17          C22   1.272       .  A
O18          C20   1.268       .  A
C19          O21   1.272       .  A
C19        C3726   1.498       .  S
C20        C3630   1.470       .  S
C22        C3749   1.478       .  S
Fe23         O39   2.058       .  S
Fe23         O29   2.074       .  S
Fe23         O36   2.085       .  S
Fe23         O28   2.036       .  S
Fe23         O34   1.975       .  S
Fe24         O27   2.050       .  S
Fe24         O31   2.063       .  S
Fe24         O35   2.056       .  S
Fe24         O40   2.051       .  S
Fe24         O34   1.966       .  S
Fe25         O43   2.093       .  S
Fe25         O30   2.088       .  S
Fe25         O37   2.079       .  S
Fe25         O26   2.100       .  S
Fe25         O34   1.987       .  S
O26          C33   1.272       .  A
O27          C41   1.268       .  A
O28          C33   1.262       .  A
O29          C32   1.272       .  A
O30          C42   1.274       .  A
O31          C44   1.265       .  A
C32          O37   1.274       .  A
C32        C3685   1.491       .  S
C33        C3429   1.485       .  S
O35          C38   1.270       .  A
O36          C38   1.272       .  A
C38        C3502   1.501       .  S
O39          C44   1.264       .  A
O40          C42   1.265       .  A
C41          O43   1.273       .  A
C41        C3534   1.500       .  S
C42        C3461   1.491       .  S
C44        C3557   1.480       .  S
Fe45         O61   2.059       .  S
Fe45         O51   2.051       .  S
Fe45         O58   2.074       .  S
Fe45         O50   2.052       .  S
Fe45         O56   1.970       .  S
Fe46         O49   2.047       .  S
Fe46         O53   2.085       .  S
Fe46         O57   2.045       .  S
Fe46         O62   2.062       .  S
Fe46         O56   1.958       .  S
Fe47         O65   2.095       .  S
Fe47         O52   2.075       .  S
Fe47         O59   2.079       .  S
Fe47         O48   2.089       .  S
Fe47         O56   1.975       .  S
O48          C55   1.279       .  A
O49          C63   1.266       .  A
O50          C55   1.270       .  A
O51          C54   1.262       .  A
O52          C64   1.269       .  A
O53          C66   1.275       .  A
C54          O59   1.268       .  A
C54        C3269   1.487       .  S
C55        C3342   1.488       .  S
O57          C60   1.259       .  A
O58          C60   1.267       .  A
C60        C3621   1.490       .  S
O61          C66   1.269       .  A
O62          C64   1.267       .  A
C63          O65   1.276       .  A
C63        C3397   1.491       .  S
C64        C3301   1.478       .  S
C66        C3365   1.472       .  S
Fe67         O83   2.060       .  S
Fe67         O73   2.082       .  S
Fe67         O80   2.098       .  S
Fe67         O72   2.045       .  S
Fe67         O78   1.949       .  S
Fe68         O71   2.043       .  S
Fe68         O75   2.076       .  S
Fe68         O79   2.037       .  S
Fe68         O84   2.076       .  S
Fe68         O78   1.945       .  S
Fe69         O87   2.103       .  S
Fe69         O74   2.070       .  S
Fe69         O81   2.055       .  S
Fe69         O70   2.092       .  S
Fe69         O78   1.954       .  S
O70          C77   1.273       .  A
O71          C85   1.267       .  A
O72          C77   1.263       .  A
O73          C76   1.275       .  A
O74          C86   1.267       .  A
O75          C88   1.267       .  A
C76          O81   1.271       .  A
C76        C3333   1.476       .  S
C77        C3141   1.488       .  S
O79          C82   1.265       .  A
O80          C82   1.280       .  A
C82        C3173   1.495       .  S
O83          C88   1.263       .  A
O84          C86   1.268       .  A
C85          O87   1.278       .  A
C85        C3237   1.481       .  S
C86        C3205   1.475       .  S
C88        C3525   1.482       .  S
Fe89        O105   2.074       .  S
Fe89         O95   2.049       .  S
Fe89        O102   2.072       .  S
Fe89         O94   2.070       .  S
Fe89        O100   1.974       .  S
Fe90         O93   2.050       .  S
Fe90         O97   2.066       .  S
Fe90        O101   2.053       .  S
Fe90        O106   2.060       .  S
Fe90        O100   1.968       .  S
Fe91        O109   2.084       .  S
Fe91         O96   2.073       .  S
Fe91        O103   2.071       .  S
Fe91         O92   2.087       .  S
Fe91        O100   1.983       .  S
O92          C99   1.275       .  A
O93         C107   1.263       .  A
O94          C99   1.274       .  A
O95          C98   1.265       .  A
O96         C108   1.271       .  A
O97         C110   1.272       .  A
C98         O103   1.265       .  A
C98        C2981   1.489       .  S
C99        C3054   1.488       .  S
O101        C104   1.264       .  A
O102        C104   1.265       .  A
C104       C3310   1.491       .  S
O105        C110   1.271       .  A
O106        C108   1.268       .  A
C107        O109   1.273       .  A
C107       C3118   1.497       .  S
C108       C3013   1.480       .  S
C110       C3086   1.471       .  S
Fe111       O127   2.075       .  S
Fe111       O117   2.054       .  S
Fe111       O124   2.059       .  S
Fe111       O116   2.057       .  S
Fe111       O122   1.981       .  S
Fe112       O115   2.047       .  S
Fe112       O119   2.048       .  S
Fe112       O123   2.056       .  S
Fe112       O128   2.038       .  S
Fe112       O122   1.965       .  S
Fe113       O131   2.089       .  S
Fe113       O118   2.106       .  S
Fe113       O125   2.097       .  S
Fe113       O114   2.085       .  S
Fe113       O122   1.983       .  S
O114        C121   1.270       .  A
O115        C129   1.263       .  A
O116        C121   1.266       .  A
O117        C120   1.270       .  A
O118        C130   1.278       .  A
O119        C132   1.262       .  A
C120        O125   1.277       .  A
C120       C3045   1.487       .  S
C121       C2862   1.485       .  S
O123        C126   1.267       .  A
O124        C126   1.265       .  A
C126       C2885   1.463       .  S
O127        C132   1.270       .  A
O128        C130   1.262       .  A
C129        O131   1.272       .  A
C129       C2949   1.481       .  S
C130       C2926   1.504       .  S
C132       C3246   1.485       .  S
Fe133       O149   2.075       .  S
Fe133       O139   2.059       .  S
Fe133       O146   2.079       .  S
Fe133       O138   2.065       .  S
Fe133       O144   1.980       .  S
Fe134       O137   2.046       .  S
Fe134       O141   2.052       .  S
Fe134       O145   2.047       .  S
Fe134       O150   2.046       .  S
Fe134       O144   1.968       .  S
Fe135       O153   2.082       .  S
Fe135       O140   2.078       .  S
Fe135       O147   2.072       .  S
Fe135       O136   2.074       .  S
Fe135       O144   1.982       .  S
O136        C143   1.272       .  A
O137        C151   1.266       .  A
O138        C143   1.273       .  A
O139        C142   1.265       .  A
O140        C152   1.271       .  A
O141        C154   1.268       .  A
C142        O147   1.267       .  A
C142       C2725   1.479       .  S
C143       C2757   1.481       .  S
O145        C148   1.263       .  A
O146        C148   1.267       .  A
C148       C3022   1.492       .  S
O149        C154   1.271       .  A
O150        C152   1.264       .  A
C151        O153   1.270       .  A
C151       C2789   1.493       .  S
C152       C3662   1.480       .  S
C154       C2821   1.466       .  S
Fe155       O171   2.053       .  S
Fe155       O161   2.079       .  S
Fe155       O168   2.079       .  S
Fe155       O160   2.047       .  S
Fe155       O166   1.960       .  S
Fe156       O159   2.055       .  S
Fe156       O163   2.091       .  S
Fe156       O167   2.045       .  S
Fe156       O172   2.079       .  S
Fe156       O166   1.958       .  S
Fe157       O175   2.087       .  S
Fe157       O162   2.065       .  S
Fe157       O169   2.061       .  S
Fe157       O158   2.083       .  S
Fe157       O166   1.967       .  S
O158        C165   1.269       .  A
O159        C173   1.270       .  A
O160        C165   1.265       .  A
O161        C164   1.272       .  A
O162        C174   1.269       .  A
O163        C176   1.272       .  A
C164        O169   1.272       .  A
C164       C2766   1.485       .  S
C165       C2638   1.487       .  S
O167        C170   1.269       .  A
O168        C170   1.271       .  A
C170       C2693   1.478       .  S
O171        C176   1.264       .  A
O172        C174   1.273       .  A
C173        O175   1.272       .  A
C173       C3566   1.484       .  S
C174       C2661   1.487       .  S
C176       C2958   1.496       .  S
Fe177       O193   2.075       .  S
Fe177       O183   2.049       .  S
Fe177       O190   2.061       .  S
Fe177       O182   2.063       .  S
Fe177       O188   1.979       .  S
Fe178       O181   2.065       .  S
Fe178       O185   2.060       .  S
Fe178       O189   2.057       .  S
Fe178       O194   2.062       .  S
Fe178       O188   1.972       .  S
Fe179       O197   2.074       .  S
Fe179       O184   2.079       .  S
Fe179       O191   2.078       .  S
Fe179       O180   2.070       .  S
Fe179       O188   1.983       .  S
O180        C187   1.272       .  A
O181        C195   1.268       .  A
O182        C187   1.272       .  A
O183        C186   1.265       .  A
O184        C196   1.269       .  A
O185        C198   1.271       .  A
C186        O191   1.267       .  A
C186       C2501   1.485       .  S
C187       C2597   1.477       .  S
O189        C192   1.264       .  A
O190        C192   1.266       .  A
C192       C2565   1.490       .  S
O193        C198   1.271       .  A
O194        C196   1.267       .  A
C195        O197   1.272       .  A
C195       C3406   1.492       .  S
C196       C2533   1.481       .  S
C198       C3077   1.476       .  S
Fe199       O215   2.054       .  S
Fe199       O205   2.073       .  S
Fe199       O212   2.081       .  S
Fe199       O204   2.048       .  S
Fe199       O210   1.966       .  S
Fe200       O203   2.049       .  S
Fe200       O207   2.066       .  S
Fe200       O211   2.043       .  S
Fe200       O216   2.061       .  S
Fe200       O210   1.961       .  S
Fe201       O219   2.084       .  S
Fe201       O206   2.080       .  S
Fe201       O213   2.067       .  S
Fe201       O202   2.082       .  S
Fe201       O210   1.978       .  S
O202        C209   1.268       .  A
O203        C217   1.265       .  A
O204        C209   1.263       .  A
O205        C208   1.274       .  A
O206        C218   1.272       .  A
O207        C220   1.266       .  A
C208        O213   1.274       .  A
C208       C2606   1.479       .  S
C209       C2405   1.484       .  S
O211        C214   1.269       .  A
O212        C214   1.274       .  A
C214       C2894   1.477       .  S
O215        C220   1.261       .  A
O216        C218   1.267       .  A
C217        O219   1.272       .  A
C217       C2446   1.483       .  S
C218       C3214   1.489       .  S
C220       C2469   1.492       .  S
Fe221       O237   2.070       .  S
Fe221       O227   2.050       .  S
Fe221       O234   2.068       .  S
Fe221       O226   2.067       .  S
Fe221       O232   1.979       .  S
Fe222       O225   2.064       .  S
Fe222       O229   2.052       .  S
Fe222       O233   2.069       .  S
Fe222       O238   2.060       .  S
Fe222       O232   1.971       .  S
Fe223       O241   2.069       .  S
Fe223       O228   2.072       .  S
Fe223       O235   2.068       .  S
Fe223       O224   2.067       .  S
Fe223       O232   1.986       .  S
O224        C231   1.269       .  A
O225        C239   1.268       .  A
O226        C231   1.272       .  A
O227        C230   1.266       .  A
O228        C240   1.269       .  A
O229        C242   1.267       .  A
C230        O235   1.266       .  A
C230       C2318   1.487       .  S
C231       C2373   1.490       .  S
O233        C236   1.266       .  A
O234        C236   1.269       .  A
C236       C2542   1.507       .  S
O237        C242   1.269       .  A
O238        C240   1.269       .  A
C239        O241   1.268       .  A
C239       C3717   1.481       .  S
C240       C2350   1.481       .  S
C242       C3374   1.466       .  S
Fe243       O259   2.059       .  S
Fe243       O249   2.065       .  S
Fe243       O256   2.076       .  S
Fe243       O248   2.049       .  S
Fe243       O254   1.983       .  S
Fe244       O247   2.050       .  S
Fe244       O251   2.062       .  S
Fe244       O255   2.048       .  S
Fe244       O260   2.059       .  S
Fe244       O254   1.973       .  S
Fe245       O263   2.091       .  S
Fe245       O250   2.076       .  S
Fe245       O257   2.064       .  S
Fe245       O246   2.090       .  S
Fe245       O254   1.985       .  S
O246        C253   1.273       .  A
O247        C261   1.267       .  A
O248        C253   1.268       .  A
O249        C252   1.268       .  A
O250        C262   1.267       .  A
O251        C264   1.265       .  A
C252        O257   1.267       .  A
C252       C2382   1.474       .  S
C253       C2245   1.499       .  S
O255        C258   1.266       .  A
O256        C258   1.270       .  A
C258       C3182   1.476       .  S
O259        C264   1.267       .  A
O260        C262   1.265       .  A
C261        O263   1.275       .  A
C261       C2286   1.484       .  S
C262       C3470   1.477       .  S
C264       C2437   1.485       .  S
Fe265       O281   2.060       .  S
Fe265       O271   2.062       .  S
Fe265       O278   2.079       .  S
Fe265       O270   2.048       .  S
Fe265       O276   1.959       .  S
Fe266       O269   2.047       .  S
Fe266       O273   2.074       .  S
Fe266       O277   2.047       .  S
Fe266       O282   2.061       .  S
Fe266       O276   1.945       .  S
Fe267       O285   2.086       .  S
Fe267       O272   2.080       .  S
Fe267       O279   2.079       .  S
Fe267       O268   2.089       .  S
Fe267       O276   1.958       .  S
O268        C275   1.274       .  A
O269        C283   1.269       .  A
O270        C275   1.271       .  A
O271        C274   1.268       .  A
O272        C284   1.272       .  A
O273        C286   1.272       .  A
C274        O279   1.270       .  A
C274       C2158   1.483       .  S
C275       C2213   1.480       .  S
O277        C280   1.262       .  A
O278        C280   1.269       .  A
C280       C2341   1.484       .  S
O281        C286   1.268       .  A
O282        C284   1.268       .  A
C283        O285   1.271       .  A
C283       C2798   1.502       .  S
C284       C2190   1.474       .  S
C286       C3758   1.465       .  S
Fe287       O303   2.062       .  S
Fe287       O293   2.076       .  S
Fe287       O300   2.087       .  S
Fe287       O292   2.047       .  S
Fe287       O298   1.979       .  S
Fe288       O291   2.059       .  S
Fe288       O295   2.062       .  S
Fe288       O299   2.056       .  S
Fe288       O304   2.058       .  S
Fe288       O298   1.968       .  S
Fe289       O307   2.075       .  S
Fe289       O294   2.070       .  S
Fe289       O301   2.059       .  S
Fe289       O290   2.075       .  S
Fe289       O298   1.988       .  S
O290        C297   1.267       .  A
O291        C305   1.269       .  A
O292        C297   1.263       .  A
O293        C296   1.273       .  A
O294        C306   1.268       .  A
O295        C308   1.264       .  A
C296        O301   1.269       .  A
C296       C2222   1.477       .  S
C297       C2085   1.477       .  S
O299        C302   1.272       .  A
O300        C302   1.273       .  A
C302       C3493   1.500       .  S
O303        C308   1.265       .  A
O304        C306   1.267       .  A
C305        O307   1.269       .  A
C305       C2126   1.485       .  S
C306       C2670   1.472       .  S
C308       C2277   1.479       .  S
Fe309       O325   2.055       .  S
Fe309       O315   2.062       .  S
Fe309       O322   2.072       .  S
Fe309       O314   2.049       .  S
Fe309       O320   1.961       .  S
Fe310       O313   2.057       .  S
Fe310       O317   2.067       .  S
Fe310       O321   2.066       .  S
Fe310       O326   2.061       .  S
Fe310       O320   1.959       .  S
Fe311       O329   2.083       .  S
Fe311       O316   2.068       .  S
Fe311       O323   2.071       .  S
Fe311       O312   2.078       .  S
Fe311       O320   1.969       .  S
O312        C319   1.273       .  A
O313        C327   1.267       .  A
O314        C319   1.268       .  A
O315        C318   1.269       .  A
O316        C328   1.269       .  A
O317        C330   1.271       .  A
C318        O323   1.267       .  A
C318       C2030   1.503       .  S
C319       C2053   1.473       .  S
O321        C324   1.268       .  A
O322        C324   1.268       .  A
C324       C2181   1.495       .  S
O325        C330   1.266       .  A
O326        C328   1.268       .  A
C327        O329   1.273       .  A
C327       C3109   1.488       .  S
C328       C2574   1.471       .  S
C330       C2830   1.473       .  S
Fe331       O347   2.058       .  S
Fe331       O337   2.059       .  S
Fe331       O344   2.075       .  S
Fe331       O336   2.041       .  S
Fe331       O342   1.970       .  S
Fe332       O335   2.044       .  S
Fe332       O339   2.071       .  S
Fe332       O343   2.041       .  S
Fe332       O348   2.063       .  S
Fe332       O342   1.959       .  S
Fe333       O351   2.085       .  S
Fe333       O338   2.076       .  S
Fe333       O345   2.066       .  S
Fe333       O334   2.080       .  S
Fe333       O342   1.978       .  S
O334        C341   1.269       .  A
O335        C349   1.267       .  A
O336        C341   1.266       .  A
O337        C340   1.269       .  A
O338        C350   1.268       .  A
O339        C352   1.269       .  A
C340        O345   1.269       .  A
C340       C2062   1.476       .  S
C341       C1998   1.490       .  S
O343        C346   1.268       .  A
O344        C346   1.270       .  A
C346       C2702   1.468       .  S
O347        C352   1.263       .  A
O348        C350   1.268       .  A
C349        O351   1.273       .  A
C349       C2478   1.470       .  S
C350       C2917   1.494       .  S
C352       C2117   1.493       .  S
Fe353       O369   2.064       .  S
Fe353       O359   2.057       .  S
Fe353       O366   2.071       .  S
Fe353       O358   2.057       .  S
Fe353       O364   1.975       .  S
Fe354       O357   2.051       .  S
Fe354       O361   2.064       .  S
Fe354       O365   2.056       .  S
Fe354       O370   2.059       .  S
Fe354       O364   1.965       .  S
Fe355       O373   2.068       .  S
Fe355       O360   2.073       .  S
Fe355       O367   2.071       .  S
Fe355       O356   2.062       .  S
Fe355       O364   1.984       .  S
O356        C363   1.269       .  A
O357        C371   1.267       .  A
O358        C363   1.271       .  A
O359        C362   1.267       .  A
O360        C372   1.270       .  A
O361        C374   1.272       .  A
C362        O367   1.266       .  A
C362       C2414   1.489       .  S
C363       C1902   1.478       .  S
O365        C368   1.261       .  A
O366        C368   1.267       .  A
C368       C1861   1.500       .  S
O369        C374   1.270       .  A
O370        C372   1.268       .  A
C371        O373   1.266       .  A
C371       C1925   1.484       .  S
C372       C1829   1.476   1_655  S
C374       C1966   1.469       .  S
Fe375       O391   2.058       .  S
Fe375       O381   2.065       .  S
Fe375       O388   2.079       .  S
Fe375       O380   2.035       .  S
Fe375       O386   1.972       .  S
Fe376       O379   2.049       .  S
Fe376       O383   2.054       .  S
Fe376       O387   2.047       .  S
Fe376       O392   2.053       .  S
Fe376       O386   1.959       .  S
Fe377       O395   2.099       .  S
Fe377       O382   2.069       .  S
Fe377       O389   2.054       .  S
Fe377       O378   2.095       .  S
Fe377       O386   1.977       .  S
O378        C385   1.271       .  A
O379        C393   1.267       .  A
O380        C385   1.262       .  A
O381        C384   1.271       .  A
O382        C394   1.267       .  A
O383        C396   1.262       .  A
C384        O389   1.270       .  A
C384       C1893   1.469       .  S
C385       C2510   1.485       .  S
O387        C390   1.269       .  A
O388        C390   1.275       .  A
C390       C1710   1.484       .  S
O391        C396   1.262       .  A
O392        C394   1.264       .  A
C393        O395   1.279       .  A
C393       C1765   1.499       .  S
C394       C1742   1.473       .  S
C396       C1806   1.475       .  S
Fe397       O413   2.070       .  S
Fe397       O403   2.053       .  S
Fe397       O410   2.076       .  S
Fe397       O402   2.066       .  S
Fe397       O408   1.967       .  S
Fe398       O401   2.045       .  S
Fe398       O405   2.066       .  S
Fe398       O409   2.051       .  S
Fe398       O414   2.053       .  S
Fe398       O408   1.958       .  S
Fe399       O417   2.091       .  S
Fe399       O404   2.065       .  S
Fe399       O411   2.064       .  S
Fe399       O400   2.093       .  S
Fe399       O408   1.975       .  S
O400        C407   1.277       .  A
O401        C415   1.268       .  A
O402        C407   1.272       .  A
O403        C406   1.266       .  A
O404        C416   1.268       .  A
O405        C418   1.269       .  A
C406        O411   1.265       .  A
C406       C2094   1.478       .  S
C407       C1605   1.492       .  S
O409        C412   1.262       .  A
O410        C412   1.269       .  A
C412       C1573   1.489       .  S
O413        C418   1.270       .  A
O414        C416   1.266       .  A
C415        O417   1.272       .  A
C415       C1637   1.505       .  S
C416       C1550   1.466       .  S
C418       C1678   1.471       .  S
Fe419       O435   2.066       .  S
Fe419       O425   2.067       .  S
Fe419       O432   2.067       .  S
Fe419       O424   2.058       .  S
Fe419       O430   1.971       .  S
Fe420       O423   2.053       .  S
Fe420       O427   2.057       .  S
Fe420       O431   2.057       .  S
Fe420       O436   2.049       .  S
Fe420       O430   1.962       .  S
Fe421       O439   2.085       .  S
Fe421       O426   2.082       .  S
Fe421       O433   2.086       .  S
Fe421       O422   2.081       .  S
Fe421       O430   1.973       .  S
O422        C429   1.269       .  A
O423        C437   1.268       .  A
O424        C429   1.267       .  A
O425        C428   1.272       .  A
O426        C438   1.270       .  A
O427        C440   1.264       .  A
C428        O433   1.274       .  A
C428       C1614   1.488       .  S
C429       C2149   1.497       .  S
O431        C434   1.270       .  A
O432        C434   1.269       .  A
C434       C1445   1.477       .  S
O435        C440   1.268       .  A
O436        C438   1.266       .  A
C437        O439   1.272       .  A
C437       C1486   1.493       .  S
C438       C1422   1.470       .  S
C440       C1509   1.486       .  S
Fe441       O457   2.073       .  S
Fe441       O447   2.044       .  S
Fe441       O454   2.055       .  S
Fe441       O446   2.065       .  S
Fe441       O452   1.977       .  S
Fe442       O445   2.057       .  S
Fe442       O449   2.058       .  S
Fe442       O453   2.060       .  S
Fe442       O458   2.058       .  S
Fe442       O452   1.967       .  S
Fe443       O461   2.083       .  S
Fe443       O448   2.083       .  S
Fe443       O455   2.077       .  S
Fe443       O444   2.081       .  S
Fe443       O452   1.979       .  S
O444        C451   1.276       .  A
O445        C459   1.270       .  A
O446        C451   1.275       .  A
O447        C450   1.260       .  A
O448        C460   1.270       .  A
O449        C462   1.269       .  A
C450        O455   1.266       .  A
C450       C2254   1.476       .  S
C451       C1317   1.488       .  S
O453        C456   1.266       .  A
O454        C456   1.261       .  A
C456       C1541   1.488       .  S
O457        C462   1.272       .  A
O458        C460   1.266       .  A
C459        O461   1.271       .  A
C459       C1381   1.500       .  S
C460       C1870   1.483       .  S
C462       C1349   1.471       .  S
Fe463       O479   2.048       .  S
Fe463       O469   2.085       .  S
Fe463       O476   2.090       .  S
Fe463       O468   2.034       .  S
Fe463       O474   1.958       .  S
Fe464       O467   2.059       .  S
Fe464       O471   2.082       .  S
Fe464       O475   2.048       .  S
Fe464       O480   2.077       .  S
Fe464       O474   1.954       .  S
Fe465       O483   2.084       .  S
Fe465       O470   2.065       .  S
Fe465       O477   2.051       .  S
Fe465       O466   2.083       .  S
Fe465       O474   1.963       .  S
O466        C473   1.270       .  A
O467        C481   1.270       .  A
O468        C473   1.262       .  A
O469        C472   1.275       .  A
O470        C482   1.267       .  A
O471        C484   1.269       .  A
C472        O477   1.267       .  A
C472       C1326   1.483       .  S
C473       C2309   1.474       .  S
O475        C478   1.269       .  A
O476        C478   1.278       .  A
C478       C1253   1.487       .  S
O479        C484   1.260       .  A
O480        C482   1.269       .  A
C481        O483   1.276       .  A
C481       C1797   1.496       .  S
C482       C1285   1.476       .  S
C484       C1477   1.481       .  S
Fe485       O501   2.062       .  S
Fe485       O491   2.052       .  S
Fe485       O498   2.061       .  S
Fe485       O490   2.060       .  S
Fe485       O496   1.978       .  S
Fe486       O489   2.064       .  S
Fe486       O493   2.062       .  S
Fe486       O497   2.062       .  S
Fe486       O502   2.057       .  S
Fe486       O496   1.971       .  S
Fe487       O505   2.080       .  S
Fe487       O492   2.068       .  S
Fe487       O499   2.061       .  S
Fe487       O488   2.080       .  S
Fe487       O496   1.983       .  S
O488        C495   1.274       .  A
O489        C503   1.270       .  A
O490        C495   1.270       .  A
O491        C494   1.263       .  A
O492        C504   1.267       .  A
O493        C506   1.269       .  A
C494        O499   1.264       .  A
C494       C1989   1.470       .  S
C495       C1157   1.471       .  S
O497        C500   1.268       .  A
O498        C500   1.265       .  A
C500       C1838   1.485       .  S
O501        C506   1.268       .  A
O502        C504   1.266       .  A
C503        O505   1.273       .  A
C503       C1189   1.490       .  S
C504       C1582   1.474   1_545  S
C506       C1221   1.472       .  S
Fe507       O523   2.074       .  S
Fe507       O513   2.089       .  S
Fe507       O520   2.094       .  S
Fe507       O512   2.058       .  S
Fe507       O518   1.955       .  S
Fe508       O511   2.043       .  S
Fe508       O515   2.070       .  S
Fe508       O519   2.037       .  S
Fe508       O524   2.069       .  S
Fe508       O518   1.946       .  S
Fe509       O527   2.093       .  S
Fe509       O514   2.074       .  S
Fe509       O521   2.062       .  S
Fe509       O510   2.083       .  S
Fe509       O518   1.963       .  S
O510        C517   1.269       .  A
O511        C525   1.266       .  A
O512        C517   1.266       .  A
O513        C516   1.279       .  A
O514        C526   1.269       .  A
O515        C528   1.266       .  A
C516        O521   1.270       .  A
C516       C1166   1.506       .  S
C517       C2021   1.481       .  S
O519        C522   1.270       .  A
O520        C522   1.276       .  A
C522       C1134   1.488       .  S
O523        C528   1.266       .  A
O524        C526   1.270       .  A
C525        O527   1.275       .  A
C525       C1518   1.473   1_545  S
C526       C1102   1.490       .  S
C528       C1774   1.483       .  S
Fe529       O545   2.068       .  S
Fe529       O535   2.074       .  S
Fe529       O542   2.077       .  S
Fe529       O534   2.054       .  S
Fe529       O540   1.980       .  S
Fe530       O533   2.046       .  S
Fe530       O537   2.049       .  S
Fe530       O541   2.049       .  S
Fe530       O546   2.052       .  S
Fe530       O540   1.968       .  S
Fe531       O549   2.075       .  S
Fe531       O536   2.075       .  S
Fe531       O543   2.061       .  S
Fe531       O532   2.070       .  S
Fe531       O540   1.981       .  S
O532        C539   1.267       .  A
O533        C547   1.263       .  A
O534        C539   1.265       .  A
O535        C538   1.272       .  A
O536        C548   1.269       .  A
O537        C550   1.262       .  A
C538        O543   1.270       .  A
C538       C1070   1.476       .  S
C539       C2990   1.480       .  S
O541        C544   1.265       .  A
O542        C544   1.273       .  A
C544       C1701   1.492       .  S
O545        C550   1.267       .  A
O546        C548   1.265       .  A
C547        O549   1.271       .  A
C547        C997   1.488       .  S
C548       C1294   1.473       .  S
C550       C1029   1.481       .  S
Fe551       O567   2.074       .  S
Fe551       O557   2.056       .  S
Fe551       O564   2.066       .  S
Fe551       O556   2.061       .  S
Fe551       O562   1.978       .  S
Fe552       O555   2.058       .  S
Fe552       O559   2.050       .  S
Fe552       O563   2.058       .  S
Fe552       O568   2.049       .  S
Fe552       O562   1.969       .  S
Fe553       O571   2.081       .  S
Fe553       O558   2.087       .  S
Fe553       O565   2.080       .  S
Fe553       O554   2.071       .  S
Fe553       O562   1.985       .  S
O554        C561   1.272       .  A
O555        C569   1.270       .  A
O556        C561   1.271       .  A
O557        C560   1.266       .  A
O558        C570   1.271       .  A
O559        C572   1.267       .  A
C560        O565   1.268       .  A
C560       C2853   1.485       .  S
C561       C1061   1.482       .  S
O563        C566   1.263       .  A
O564        C566   1.268       .  A
C566        C965   1.499       .  S
O567        C572   1.270       .  A
O568        C570   1.264       .  A
C569        O571   1.270       .  A
C569       C1390   1.491       .  S
C570        C942   1.483   1_545  S
C572       C1957   1.475       .  S
Fe573       O589   2.062       .  S
Fe573       O579   2.072       .  S
Fe573       O586   2.080       .  S
Fe573       O578   2.046       .  S
Fe573       O584   1.978       .  S
Fe574       O577   2.048       .  S
Fe574       O581   2.058       .  S
Fe574       O585   2.047       .  S
Fe574       O590   2.053       .  S
Fe574       O584   1.967       .  S
Fe575       O593   2.079       .  S
Fe575       O580   2.063       .  S
Fe575       O587   2.057       .  S
Fe575       O576   2.079       .  S
Fe575       O584   1.986       .  S
O576        C583   1.268       .  A
O577        C591   1.267       .  A
O578        C583   1.262       .  A
O579        C582   1.272       .  A
O580        C592   1.267       .  A
O581        C594   1.264       .  A
C582        O587   1.271       .  A
C582        C901   1.482       .  S
C583       C3278   1.482       .  S
O585        C588   1.265       .  A
O586        C588   1.274       .  A
C588       C1262   1.490       .  S
O589        C594   1.264       .  A
O590        C592   1.267       .  A
C591        O593   1.271       .  A
C591        C869   1.481   1_655  S
C592       C1413   1.470       .  S
C594       C1006   1.472       .  S
Fe595       O611   2.060       .  S
Fe595       O601   2.055       .  S
Fe595       O608   2.070       .  S
Fe595       O600   2.046       .  S
Fe595       O606   1.974       .  S
Fe596       O599   2.050       .  S
Fe596       O603   2.066       .  S
Fe596       O607   2.051       .  S
Fe596       O612   2.051       .  S
Fe596       O606   1.968       .  S
Fe597       O615   2.094       .  S
Fe597       O602   2.078       .  S
Fe597       O609   2.084       .  S
Fe597       O598   2.088       .  S
Fe597       O606   1.984       .  S
O598        C605   1.275       .  A
O599        C613   1.269       .  A
O600        C605   1.266       .  A
O601        C604   1.265       .  A
O602        C614   1.270       .  A
O603        C616   1.270       .  A
C604        O609   1.271       .  A
C604       C3150   1.490       .  S
C605        C910   1.483       .  S
O607        C610   1.261       .  A
O608        C610   1.268       .  A
C610        C933   1.492       .  S
O611        C616   1.268       .  A
O612        C614   1.265       .  A
C613        O615   1.274       .  A
C613       C1646   1.495       .  S
C614        C837   1.472   1_655  S
C616       C1358   1.465       .  S
Fe617       O633   2.071       .  S
Fe617       O623   2.044       .  S
Fe617       O630   2.056       .  S
Fe617       O622   2.056       .  S
Fe617       O628   1.975       .  S
Fe618       O621   2.063       .  S
Fe618       O625   2.052       .  S
Fe618       O629   2.067       .  S
Fe618       O634   2.056       .  S
Fe618       O628   1.968       .  S
Fe619       O637   2.072       .  S
Fe619       O624   2.076       .  S
Fe619       O631   2.077       .  S
Fe619       O620   2.071       .  S
Fe619       O628   1.982       .  S
O620        C627   1.266       .  A
O621        C635   1.267       .  A
O622        C627   1.267       .  A
O623        C626   1.268       .  A
O624        C636   1.272       .  A
O625        C638   1.265       .  A
C626        O631   1.272       .  A
C626        C805   1.472       .  S
C627       C3598   1.489       .  S
O629        C632   1.270       .  A
O630        C632   1.266       .  A
C632       C1454   1.465       .  S
O633        C638   1.267       .  A
O634        C636   1.266       .  A
C635        O637   1.268       .  A
C635        C773   1.477       .  S
C636       C1093   1.489       .  S
C638        C878   1.480       .  S
Fe639       O655   2.068       .  S
Fe639       O645   2.053       .  S
Fe639       O652   2.068       .  S
Fe639       O644   2.064       .  S
Fe639       O650   1.970       .  S
Fe640       O643   2.053       .  S
Fe640       O647   2.069       .  S
Fe640       O651   2.053       .  S
Fe640       O656   2.059       .  S
Fe640       O650   1.961       .  S
Fe641       O659   2.080       .  S
Fe641       O646   2.082       .  S
Fe641       O653   2.081       .  S
Fe641       O642   2.074       .  S
Fe641       O650   1.974       .  S
O642        C649   1.273       .  A
O643        C657   1.266       .  A
O644        C649   1.274       .  A
O645        C648   1.265       .  A
O646        C658   1.271       .  A
O647        C660   1.273       .  A
C648        O653   1.268       .  A
C648       C3438   1.499       .  S
C649        C814   1.477       .  S
O651        C654   1.264       .  A
O652        C654   1.264       .  A
C654        C846   1.490       .  S
O655        C660   1.271       .  A
O656        C658   1.266       .  A
C657        O659   1.273       .  A
C657       C1198   1.492       .  S
C658        C750   1.483       .  S
C660       C1669   1.477       .  S
Fe661       O677   2.073       .  S
Fe661       O667   2.064       .  S
Fe661       O674   2.070       .  S
Fe661       O666   2.051       .  S
Fe661       O672   1.978       .  S
Fe662       O665   2.056       .  S
Fe662       O669   2.051       .  S
Fe662       O673   2.055       .  S
Fe662       O678   2.051       .  S
Fe662       O672   1.965       .  S
Fe663       O681   2.079       .  S
Fe663       O668   2.078       .  S
Fe663       O675   2.065       .  S
Fe663       O664   2.073       .  S
Fe663       O672   1.982       .  S
O664        C671   1.268       .  A
O665        C679   1.269       .  A
O666        C671   1.264       .  A
O667        C670   1.273       .  A
O668        C680   1.267       .  A
O669        C682   1.264       .  A
C670        O675   1.269       .  A
C670        C709   1.482       .  S
C671       C2734   1.480       .  S
O673        C676   1.272       .  A
O674        C676   1.271       .  A
C676       C1125   1.474       .  S
O677        C682   1.264       .  A
O678        C680   1.262       .  A
C679        O681   1.274       .  A
C679       C1038   1.483       .  S
C680       C1733   1.476       .  S
C682        C782   1.500       .  S
Fe683       O699   2.080       .  S
Fe683       O689   2.058       .  S
Fe683       O696   2.075       .  S
Fe683       O688   2.071       .  S
Fe683       O694   1.972       .  S
Fe684       O687   2.057       .  S
Fe684       O691   2.044       .  S
Fe684       O695   2.059       .  S
Fe684       O700   2.048       .  S
Fe684       O694   1.962       .  S
Fe685       O703   2.067       .  S
Fe685       O690   2.091       .  S
Fe685       O697   2.073       .  S
Fe685       O686   2.059       .  S
Fe685       O694   1.978       .  S
O686        C693   1.272       .  A
O687        C701   1.268       .  A
O688        C693   1.273       .  A
O689        C692   1.267       .  A
O690        C702   1.274       .  A
O691        C704   1.268       .  A
C692        O697   1.267       .  A
C692       C2629   1.488       .  S
C693        C718   1.482       .  S
O695        C698   1.266       .  A
O696        C698   1.266       .  A
C698        C741   1.498       .  S
O699        C704   1.273       .  A
O700        C702   1.267       .  A
C701        O703   1.265       .  A
C701       C1934   1.489       .  S
C702        C974   1.479       .  S
C704       C1230   1.465       .  S
C705        C706   1.400       .  A
C705        C710   1.408       .  A
C705        H715   1.083       .  S
C706        C711   1.479   1_554  S
C706        C707   1.414       .  A
C707        C708   1.402       .  A
C707        C712   1.521       .  S
C708        C709   1.404       .  A
C708        H713   1.083       .  S
C709        C710   1.423       .  A
C710        C714   1.520       .  S
C711        C716   1.413       .  A
C711        C720   1.399       .  A
C712        F728   1.382   1_554  S
C712        F729   1.383   1_554  S
C712        F730   1.384       .  S
C714        F725   1.383       .  S
C714        F726   1.385       .  S
C714        F727   1.383       .  S
C716        C717   1.405       .  A
C716        C721   1.519       .  S
C717        C718   1.407       .  A
C717        H722   1.083       .  S
C718        C719   1.422       .  A
C719        C720   1.404       .  A
C719        C723   1.520       .  S
C720        H724   1.083       .  S
C721        F734   1.385       .  S
C721        F735   1.383       .  S
C721        F736   1.382       .  S
C723        F731   1.385       .  S
C723        F732   1.383       .  S
C723        F733   1.383       .  S
C737        C738   1.403       .  A
C737        C742   1.413       .  A
C737        H747   1.083       .  S
C738        C743   1.489       .  S
C738        C739   1.414       .  A
C739        C740   1.406       .  A
C739        C744   1.522       .  S
C740        C741   1.410       .  A
C740        H745   1.082       .  S
C741        C742   1.423       .  A
C742        C746   1.518       .  S
C743        C748   1.417       .  A
C743        C752   1.403       .  A
C744        F760   1.382       .  S
C744        F761   1.382       .  S
C744        F762   1.384       .  S
C746        F757   1.382       .  S
C746        F758   1.385       .  S
C746        F759   1.384       .  S
C748        C749   1.408       .  A
C748        C753   1.519       .  S
C749        C750   1.403   1_545  A
C749        H754   1.083       .  S
C750        C751   1.419       .  A
C751        C752   1.410   1_565  A
C751        C755   1.518       .  S
C752        H756   1.083       .  S
C753        F766   1.385       .  S
C753        F767   1.382       .  S
C753        F768   1.382       .  S
C755        F763   1.385       .  S
C755        F764   1.384       .  S
C755        F765   1.382       .  S
C769        C770   1.403       .  A
C769        C774   1.406       .  A
C769        H779   1.083       .  S
C770        C775   1.486       .  S
C770        C771   1.415       .  A
C771        C772   1.409   1_545  A
C771        C776   1.518       .  S
C772        C773   1.404       .  A
C772        H777   1.083       .  S
C773        C774   1.416   1_565  A
C774        C778   1.519       .  S
C775        C780   1.413       .  A
C775        C784   1.402       .  A
C776        F792   1.383       .  S
C776        F793   1.382       .  S
C776        F794   1.385   1_545  S
C778        F789   1.383       .  S
C778        F790   1.385       .  S
C778        F791   1.383       .  S
C780        C781   1.403       .  A
C780        C785   1.523       .  S
C781        C782   1.411       .  A
C781        H786   1.082       .  S
C782        C783   1.426       .  A
C783        C784   1.413       .  A
C783        C787   1.518       .  S
C784        H788   1.083       .  S
C785        F798   1.385       .  S
C785        F799   1.382       .  S
C785        F800   1.381       .  S
C787        F795   1.383       .  S
C787        F796   1.383       .  S
C787        F797   1.385       .  S
C801        C802   1.403       .  A
C801        C806   1.408       .  A
C801        H811   1.083       .  S
C802        C807   1.479   1_554  S
C802        C803   1.414       .  A
C803        C804   1.400       .  A
C803        C808   1.520       .  S
C804        C805   1.402       .  A
C804        H809   1.084       .  S
C805        C806   1.416       .  A
C806        C810   1.519       .  S
C807        C812   1.415       .  A
C807        C816   1.399       .  A
C808        F824   1.382   1_554  S
C808        F825   1.382   1_554  S
C808        F826   1.385       .  S
C810        F821   1.384       .  S
C810        F822   1.385       .  S
C810        F823   1.383       .  S
C812        C813   1.405       .  A
C812        C817   1.520       .  S
C813        C814   1.404       .  A
C813        H818   1.083       .  S
C814        C815   1.420       .  A
C815        C816   1.404       .  A
C815        C819   1.520       .  S
C816        H820   1.083       .  S
C817        F830   1.385       .  S
C817        F831   1.382       .  S
C817        F832   1.383       .  S
C819        F827   1.385       .  S
C819        F828   1.382       .  S
C819        F829   1.384       .  S
C833        C834   1.401       .  A
C833        C838   1.406       .  A
C833        H843   1.083       .  S
C834        C839   1.481       .  S
C834        C835   1.417       .  A
C835        C836   1.405       .  A
C835        C840   1.520       .  S
C836        C837   1.400       .  A
C836        H841   1.082       .  S
C837        C838   1.415       .  A
C838        C842   1.516   1_455  S
C839        C844   1.413       .  A
C839        C848   1.400       .  A
C840        F856   1.382       .  S
C840        F857   1.382       .  S
C840        F858   1.385       .  S
C842        F853   1.382       .  S
C842        F854   1.385       .  S
C842        F855   1.382       .  S
C844        C845   1.404       .  A
C844        C849   1.521       .  S
C845        C846   1.409       .  A
C845        H850   1.082       .  S
C846        C847   1.423       .  A
C847        C848   1.408       .  A
C847        C851   1.518       .  S
C848        H852   1.083       .  S
C849        F862   1.385       .  S
C849        F863   1.382       .  S
C849        F864   1.382       .  S
C851        F859   1.385       .  S
C851        F860   1.383       .  S
C851        F861   1.383       .  S
C865        C866   1.400       .  A
C865        C870   1.405       .  A
C865        H875   1.083       .  S
C866        C871   1.479       .  S
C866        C867   1.412       .  A
C867        C868   1.406       .  A
C867        C872   1.519       .  S
C868        C869   1.407       .  A
C868        H873   1.083   1_455  S
C869        C870   1.421       .  A
C870        C874   1.520       .  S
C871        C876   1.415       .  A
C871        C880   1.403       .  A
C872        F888   1.382       .  S
C872        F889   1.382       .  S
C872        F890   1.385   1_455  S
C874        F885   1.382       .  S
C874        F886   1.385       .  S
C874        F887   1.382       .  S
C876        C877   1.400       .  A
C876        C881   1.524       .  S
C877        C878   1.403       .  A
C877        H882   1.081       .  S
C878        C879   1.418       .  A
C879        C880   1.411       .  A
C879        C883   1.518       .  S
C880        H884   1.083       .  S
C881        F894   1.385       .  S
C881        F895   1.382       .  S
C881        F896   1.381       .  S
C883        F891   1.382       .  S
C883        F892   1.384       .  S
C883        F893   1.385       .  S
C897        C898   1.401       .  A
C897        C902   1.407       .  A
C897        H907   1.083       .  S
C898        C903   1.478   1_554  S
C898        C899   1.412       .  A
C899        C900   1.404       .  A
C899        C904   1.520       .  S
C900        C901   1.408       .  A
C900        H905   1.083       .  S
C901        C902   1.420       .  A
C902        C906   1.519       .  S
C903        C908   1.415       .  A
C903        C912   1.397       .  A
C904        F920   1.383   1_554  S
C904        F921   1.381   1_554  S
C904        F922   1.385       .  S
C906        F917   1.385       .  S
C906        F918   1.383       .  S
C906        F919   1.383       .  S
C908        C909   1.408       .  A
C908        C913   1.519       .  S
C909        C910   1.405       .  A
C909        H914   1.083       .  S
C910        C911   1.424       .  A
C911        C912   1.403       .  A
C911        C915   1.519       .  S
C912        H916   1.084       .  S
C913        F926   1.384       .  S
C913        F927   1.383       .  S
C913        F928   1.382       .  S
C915        F923   1.382       .  S
C915        F924   1.382       .  S
C915        F925   1.385       .  S
C929        C930   1.401       .  A
C929        C934   1.407       .  A
C929        H939   1.083       .  S
C930        C935   1.483       .  S
C930        C931   1.412       .  A
C931        C932   1.405       .  A
C931        C936   1.519       .  S
C932        C933   1.408       .  A
C932        H937   1.079       .  S
C933        C934   1.426       .  A
C934        C938   1.523       .  S
C935        C940   1.416       .  A
C935        C944   1.399       .  A
C936        F952   1.382       .  S
C936        F953   1.381       .  S
C936        F954   1.385       .  S
C938        F949   1.383       .  S
C938        F950   1.385       .  S
C938        F951   1.383       .  S
C940        C941   1.411       .  A
C940        C945   1.519       .  S
C941        C942   1.407       .  A
C941        H946   1.083   1_565  S
C942        C943   1.417       .  A
C943        C944   1.402       .  A
C943        C947   1.513       .  S
C944        H948   1.083       .  S
C945        F958   1.384       .  S
C945        F959   1.382       .  S
C945        F960   1.382       .  S
C947        F955   1.383       .  S
C947        F956   1.382       .  S
C947        F957   1.385       .  S
C961        C962   1.399       .  A
C961        C966   1.406       .  A
C961        H971   1.083       .  S
C962        C967   1.485       .  S
C962        C963   1.413       .  A
C963        C964   1.407       .  A
C963        C968   1.520       .  S
C964        C965   1.412       .  A
C964        H969   1.082       .  S
C965        C966   1.429       .  A
C966        C970   1.522       .  S
C967        C972   1.416       .  A
C967        C976   1.402       .  A
C968        F984   1.381       .  S
C968        F985   1.382       .  S
C968        F986   1.385       .  S
C970        F981   1.384       .  S
C970        F982   1.385       .  S
C970        F983   1.381       .  S
C972        C973   1.408   1_655  A
C972        C977   1.519       .  S
C973        C974   1.405       .  A
C973        H978   1.083       .  S
C974        C975   1.417   1_455  A
C975        C976   1.405       .  A
C975        C979   1.518       .  S
C976        H980   1.083       .  S
C977        F990   1.384   1_655  S
C977        F991   1.381       .  S
C977        F992   1.382       .  S
C979        F987   1.385       .  S
C979        F988   1.383       .  S
C979        F989   1.382       .  S
C993        C994   1.399       .  A
C993        C998   1.406       .  A
C993       H1003   1.084       .  S
C994        C999   1.479       .  S
C994        C995   1.412       .  A
C995        C996   1.405       .  A
C995       C1000   1.517       .  S
C996        C997   1.407   1_565  A
C996       H1001   1.083       .  S
C997        C998   1.425   1_545  A
C998       C1002   1.520   1_565  S
C999       C1004   1.419       .  A
C999       C1008   1.401       .  A
C1000      F1016   1.382       .  S
C1000      F1017   1.383       .  S
C1000      F1018   1.385       .  S
C1002      F1013   1.383       .  S
C1002      F1014   1.385       .  S
C1002      F1015   1.383       .  S
C1004      C1005   1.409       .  A
C1004      C1009   1.518       .  S
C1005      C1006   1.403       .  A
C1005      H1010   1.084       .  S
C1006      C1007   1.415       .  A
C1007      C1008   1.401       .  A
C1007      C1011   1.520       .  S
C1008      H1012   1.084       .  S
C1009      F1022   1.383       .  S
C1009      F1023   1.383       .  S
C1009      F1024   1.382       .  S
C1011      F1019   1.382       .  S
C1011      F1020   1.383       .  S
C1011      F1021   1.385       .  S
C1025      C1026   1.399       .  A
C1025      C1030   1.402       .  A
C1025      H1035   1.084       .  S
C1026      C1031   1.480       .  S
C1026      C1027   1.413       .  A
C1027      C1028   1.410       .  A
C1027      C1032   1.517       .  S
C1028      C1029   1.407       .  A
C1028      H1033   1.083       .  S
C1029      C1030   1.422       .  A
C1030      C1034   1.522       .  S
C1031      C1036   1.416       .  A
C1031      C1040   1.402       .  A
C1032      F1048   1.383       .  S
C1032      F1049   1.381       .  S
C1032      F1050   1.385       .  S
C1034      F1045   1.385       .  S
C1034      F1046   1.383       .  S
C1034      F1047   1.383       .  S
C1036      C1037   1.404       .  A
C1036      C1041   1.522       .  S
C1037      C1038   1.404   1_655  A
C1037      H1042   1.082       .  S
C1038      C1039   1.419       .  A
C1039      C1040   1.407   1_455  A
C1039      C1043   1.518       .  S
C1040      H1044   1.084       .  S
C1041      F1054   1.385       .  S
C1041      F1055   1.382       .  S
C1041      F1056   1.381       .  S
C1043      F1051   1.385       .  S
C1043      F1052   1.383       .  S
C1043      F1053   1.384       .  S
C1057      C1058   1.401       .  A
C1057      C1062   1.405       .  A
C1057      H1067   1.083       .  S
C1058      C1063   1.482   1_556  S
C1058      C1059   1.415       .  A
C1059      C1060   1.406       .  A
C1059      C1064   1.520       .  S
C1060      C1061   1.407       .  A
C1060      H1065   1.083       .  S
C1061      C1062   1.420       .  A
C1062      C1066   1.520       .  S
C1063      C1068   1.417       .  A
C1063      C1072   1.400       .  A
C1064      F1080   1.382       .  S
C1064      F1081   1.382       .  S
C1064      F1082   1.385       .  S
C1066      F1077   1.385       .  S
C1066      F1078   1.382       .  S
C1066      F1079   1.384       .  S
C1068      C1069   1.408       .  A
C1068      C1073   1.519       .  S
C1069      C1070   1.402       .  A
C1069      H1074   1.083       .  S
C1070      C1071   1.418       .  A
C1071      C1072   1.404       .  A
C1071      C1075   1.518       .  S
C1072      H1076   1.083       .  S
C1073      F1086   1.384       .  S
C1073      F1087   1.382   1_554  S
C1073      F1088   1.382   1_554  S
C1075      F1083   1.382       .  S
C1075      F1084   1.383       .  S
C1075      F1085   1.385       .  S
C1089      C1090   1.399       .  A
C1089      C1094   1.404       .  A
C1089      H1099   1.084       .  S
C1090      C1095   1.482       .  S
C1090      C1091   1.411       .  A
C1091      C1092   1.408       .  A
C1091      C1096   1.516   1_565  S
C1092      C1093   1.409       .  A
C1092      H1097   1.083       .  S
C1093      C1094   1.423       .  A
C1094      C1098   1.518       .  S
C1095      C1100   1.416   1_565  A
C1095      C1104   1.403       .  A
C1096      F1112   1.383   1_545  S
C1096      F1113   1.381       .  S
C1096      F1114   1.385       .  S
C1098      F1109   1.382       .  S
C1098      F1110   1.385       .  S
C1098      F1111   1.384       .  S
C1100      C1101   1.402       .  A
C1100      C1105   1.524       .  S
C1101      C1102   1.407       .  A
C1101      H1106   1.083       .  S
C1102      C1103   1.421       .  A
C1103      C1104   1.413   1_545  A
C1103      C1107   1.517       .  S
C1104      H1108   1.083       .  S
C1105      F1118   1.385       .  S
C1105      F1119   1.382   1_545  S
C1105      F1120   1.381       .  S
C1107      F1115   1.385   1_545  S
C1107      F1116   1.383   1_545  S
C1107      F1117   1.383       .  S
C1121      C1122   1.401       .  A
C1121      C1126   1.407       .  A
C1121      H1131   1.083       .  S
C1122      C1127   1.476       .  S
C1122      C1123   1.411       .  A
C1123      C1124   1.401       .  A
C1123      C1128   1.518       .  S
C1124      C1125   1.404       .  A
C1124      H1129   1.084       .  S
C1125      C1126   1.418       .  A
C1126      C1130   1.518       .  S
C1127      C1132   1.413       .  A
C1127      C1136   1.400       .  A
C1128      F1144   1.383       .  S
C1128      F1145   1.382       .  S
C1128      F1146   1.385       .  S
C1130      F1141   1.383       .  S
C1130      F1142   1.385       .  S
C1130      F1143   1.383       .  S
C1132      C1133   1.398       .  A
C1132      C1137   1.524       .  S
C1133      C1134   1.408       .  A
C1133      H1138   1.082       .  S
C1134      C1135   1.422       .  A
C1135      C1136   1.410       .  A
C1135      C1139   1.517       .  S
C1136      H1140   1.083       .  S
C1137      F1150   1.385       .  S
C1137      F1151   1.382       .  S
C1137      F1152   1.382       .  S
C1139      F1147   1.382       .  S
C1139      F1148   1.383       .  S
C1139      F1149   1.385       .  S
C1153      C1154   1.404       .  A
C1153      C1158   1.407       .  A
C1153      H1163   1.083       .  S
C1154      C1159   1.485       .  S
C1154      C1155   1.417       .  A
C1155      C1156   1.406       .  A
C1155      C1160   1.519       .  S
C1156      C1157   1.400       .  A
C1156      H1161   1.083       .  S
C1157      C1158   1.414       .  A
C1158      C1162   1.517       .  S
C1159      C1164   1.412       .  A
C1159      C1168   1.397       .  A
C1160      F1176   1.382       .  S
C1160      F1177   1.381       .  S
C1160      F1178   1.385       .  S
C1162      F1173   1.385       .  S
C1162      F1174   1.382       .  S
C1162      F1175   1.383       .  S
C1164      C1165   1.407       .  A
C1164      C1169   1.521       .  S
C1165      C1166   1.413       .  A
C1165      H1170   1.082       .  S
C1166      C1167   1.432       .  A
C1167      C1168   1.409       .  A
C1167      C1171   1.523       .  S
C1168      H1172   1.083       .  S
C1169      F1182   1.384       .  S
C1169      F1183   1.382       .  S
C1169      F1184   1.382       .  S
C1171      F1179   1.384       .  S
C1171      F1180   1.383       .  S
C1171      F1181   1.385       .  S
C1185      C1186   1.402       .  A
C1185      C1190   1.402       .  A
C1185      H1195   1.085       .  S
C1186      C1191   1.488   1_545  S
C1186      C1187   1.417       .  A
C1187      C1188   1.412       .  A
C1187      C1192   1.519   1_545  S
C1188      C1189   1.408       .  A
C1188      H1193   1.083       .  S
C1189      C1190   1.420       .  A
C1190      C1194   1.518       .  S
C1191      C1196   1.417       .  A
C1191      C1200   1.401       .  A
C1192      F1208   1.381       .  S
C1192      F1209   1.381       .  S
C1192      F1210   1.385       .  S
C1194      F1205   1.383       .  S
C1194      F1206   1.385       .  S
C1194      F1207   1.383       .  S
C1196      C1197   1.410       .  A
C1196      C1201   1.520   1_565  S
C1197      C1198   1.408       .  A
C1197      H1202   1.082       .  S
C1198      C1199   1.425       .  A
C1199      C1200   1.406       .  A
C1199      C1203   1.522       .  S
C1200      H1204   1.084       .  S
C1201      F1214   1.385       .  S
C1201      F1215   1.381       .  S
C1201      F1216   1.381       .  S
C1203      F1211   1.383       .  S
C1203      F1212   1.382       .  S
C1203      F1213   1.385       .  S
C1217      C1218   1.401       .  A
C1217      C1222   1.400       .  A
C1217      H1227   1.084       .  S
C1218      C1223   1.478       .  S
C1218      C1219   1.415       .  A
C1219      C1220   1.407       .  A
C1219      C1224   1.518       .  S
C1220      C1221   1.403       .  A
C1220      H1225   1.082       .  S
C1221      C1222   1.417       .  A
C1222      C1226   1.520       .  S
C1223      C1228   1.416       .  A
C1223      C1232   1.404       .  A
C1224      F1240   1.381       .  S
C1224      F1241   1.382       .  S
C1224      F1242   1.384       .  S
C1226      F1237   1.385       .  S
C1226      F1238   1.382       .  S
C1226      F1239   1.383       .  S
C1228      C1229   1.405       .  A
C1228      C1233   1.519       .  S
C1229      C1230   1.402       .  A
C1229      H1234   1.084       .  S
C1230      C1231   1.412       .  A
C1231      C1232   1.403       .  A
C1231      C1235   1.518       .  S
C1232      H1236   1.084       .  S
C1233      F1246   1.385       .  S
C1233      F1247   1.382       .  S
C1233      F1248   1.381       .  S
C1235      F1243   1.385       .  S
C1235      F1244   1.383       .  S
C1235      F1245   1.383       .  S
C1249      C1250   1.402       .  A
C1249      C1254   1.404       .  A
C1249      H1259   1.083       .  S
C1250      C1255   1.484       .  S
C1250      C1251   1.417       .  A
C1251      C1252   1.404       .  A
C1251      C1256   1.517       .  S
C1252      C1253   1.406       .  A
C1252      H1257   1.084       .  S
C1253      C1254   1.423       .  A
C1254      C1258   1.521       .  S
C1255      C1260   1.414       .  A
C1255      C1264   1.399       .  A
C1256      F1272   1.383       .  S
C1256      F1273   1.382       .  S
C1256      F1274   1.384       .  S
C1258      F1269   1.383       .  S
C1258      F1270   1.385       .  S
C1258      F1271   1.382       .  S
C1260      C1261   1.408       .  A
C1260      C1265   1.518       .  S
C1261      C1262   1.409       .  A
C1261      H1266   1.083       .  S
C1262      C1263   1.426       .  A
C1263      C1264   1.401       .  A
C1263      C1267   1.522       .  S
C1264      H1268   1.084       .  S
C1265      F1278   1.384       .  S
C1265      F1279   1.381       .  S
C1265      F1280   1.383       .  S
C1267      F1275   1.383       .  S
C1267      F1276   1.384       .  S
C1267      F1277   1.385       .  S
C1281      C1282   1.403   1_545  A
C1281      C1286   1.405   1_545  A
C1281      H1291   1.083       .  S
C1282      C1287   1.484   1_565  S
C1282      C1283   1.418       .  A
C1283      C1284   1.406       .  A
C1283      C1288   1.515       .  S
C1284      C1285   1.401       .  A
C1284      H1289   1.084       .  S
C1285      C1286   1.416       .  A
C1286      C1290   1.518   1_565  S
C1287      C1292   1.417       .  A
C1287      C1296   1.402   1_545  A
C1288      F1304   1.383       .  S
C1288      F1305   1.383       .  S
C1288      F1306   1.384       .  S
C1290      F1301   1.385       .  S
C1290      F1302   1.382       .  S
C1290      F1303   1.382       .  S
C1292      C1293   1.410       .  A
C1292      C1297   1.517       .  S
C1293      C1294   1.403       .  A
C1293      H1298   1.083       .  S
C1294      C1295   1.416       .  A
C1295      C1296   1.403   1_545  A
C1295      C1299   1.520   1_545  S
C1296      H1300   1.084       .  S
C1297      F1310   1.385       .  S
C1297      F1311   1.381       .  S
C1297      F1312   1.383       .  S
C1299      F1307   1.382   1_565  S
C1299      F1308   1.383       .  S
C1299      F1309   1.385       .  S
C1313      C1314   1.401       .  A
C1313      C1318   1.408       .  A
C1313      H1323   1.083       .  S
C1314      C1319   1.481       .  S
C1314      C1315   1.412       .  A
C1315      C1316   1.405       .  A
C1315      C1320   1.521       .  S
C1316      C1317   1.406       .  A
C1316      H1321   1.079       .  S
C1317      C1318   1.422       .  A
C1318      C1322   1.519       .  S
C1319      C1324   1.415       .  A
C1319      C1328   1.398       .  A
C1320      F1336   1.382       .  S
C1320      F1337   1.382       .  S
C1320      F1338   1.385       .  S
C1322      F1333   1.384       .  S
C1322      F1334   1.383       .  S
C1322      F1335   1.384       .  S
C1324      C1325   1.407       .  A
C1324      C1329   1.520       .  S
C1325      C1326   1.405       .  A
C1325      H1330   1.083       .  S
C1326      C1327   1.424       .  A
C1327      C1328   1.405       .  A
C1327      C1331   1.521       .  S
C1328      H1332   1.083       .  S
C1329      F1342   1.384       .  S
C1329      F1343   1.382       .  S
C1329      F1344   1.382       .  S
C1331      F1339   1.385       .  S
C1331      F1340   1.383       .  S
C1331      F1341   1.383       .  S
C1345      C1346   1.400       .  A
C1345      C1350   1.400       .  A
C1345      H1355   1.084       .  S
C1346      C1351   1.477       .  S
C1346      C1347   1.414       .  A
C1347      C1348   1.409       .  A
C1347      C1352   1.516       .  S
C1348      C1349   1.404       .  A
C1348      H1353   1.083       .  S
C1349      C1350   1.417       .  A
C1350      C1354   1.521       .  S
C1351      C1356   1.416       .  A
C1351      C1360   1.402       .  A
C1352      F1368   1.382       .  S
C1352      F1369   1.383       .  S
C1352      F1370   1.384       .  S
C1354      F1365   1.385       .  S
C1354      F1366   1.382       .  S
C1354      F1367   1.383       .  S
C1356      C1357   1.404       .  A
C1356      C1361   1.517       .  S
C1357      C1358   1.401       .  A
C1357      H1362   1.085       .  S
C1358      C1359   1.417       .  A
C1359      C1360   1.401       .  A
C1359      C1363   1.519       .  S
C1360      H1364   1.085       .  S
C1361      F1374   1.383       .  S
C1361      F1375   1.383       .  S
C1361      F1376   1.382       .  S
C1363      F1371   1.383       .  S
C1363      F1372   1.380       .  S
C1363      F1373   1.383       .  S
C1377      C1378   1.400       .  A
C1377      C1382   1.412       .  A
C1377      H1387   1.083       .  S
C1378      C1383   1.484   1_565  S
C1378      C1379   1.412       .  A
C1379      C1380   1.403       .  A
C1379      C1384   1.522       .  S
C1380      C1381   1.411       .  A
C1380      H1385   1.082       .  S
C1381      C1382   1.427       .  A
C1382      C1386   1.518       .  S
C1383      C1388   1.412       .  A
C1383      C1392   1.403   1_545  A
C1384      F1400   1.382       .  S
C1384      F1401   1.383       .  S
C1384      F1402   1.385       .  S
C1386      F1397   1.380       .  S
C1386      F1398   1.385       .  S
C1386      F1399   1.381       .  S
C1388      C1389   1.402       .  A
C1388      C1393   1.520       .  S
C1389      C1390   1.407       .  A
C1389      H1394   1.083       .  S
C1390      C1391   1.423       .  A
C1391      C1392   1.413   1_545  A
C1391      C1395   1.517       .  S
C1392      H1396   1.083       .  S
C1393      F1406   1.384       .  S
C1393      F1407   1.383       .  S
C1393      F1408   1.382       .  S
C1395      F1403   1.385   1_545  S
C1395      F1404   1.382       .  S
C1395      F1405   1.377   1_545  S
C1409      C1410   1.402   1_655  A
C1409      C1414   1.407       .  A
C1409      H1419   1.085       .  S
C1410      C1415   1.479       .  S
C1410      C1411   1.414       .  A
C1411      C1412   1.399   1_455  A
C1411      C1416   1.522       .  S
C1412      C1413   1.403       .  A
C1412      H1417   1.083   1_655  S
C1413      C1414   1.421       .  A
C1414      C1418   1.519       .  S
C1415      C1420   1.417   1_455  A
C1415      C1424   1.403       .  A
C1416      F1432   1.382       .  S
C1416      F1433   1.383       .  S
C1416      F1434   1.385       .  S
C1418      F1429   1.384       .  S
C1418      F1430   1.383       .  S
C1418      F1431   1.379       .  S
C1420      C1421   1.402   1_655  A
C1420      C1425   1.522       .  S
C1421      C1422   1.400       .  A
C1421      H1426   1.084       .  S
C1422      C1423   1.413       .  A
C1423      C1424   1.408       .  A
C1423      C1427   1.513       .  S
C1424      H1428   1.083       .  S
C1425      F1438   1.384       .  S
C1425      F1439   1.382       .  S
C1425      F1440   1.383       .  S
C1427      F1435   1.383       .  S
C1427      F1436   1.381       .  S
C1427      F1437   1.385       .  S
C1441      C1442   1.401       .  A
C1441      C1446   1.410       .  A
C1441      H1451   1.083       .  S
C1442      C1447   1.477       .  S
C1442      C1443   1.417       .  A
C1443      C1444   1.397       .  A
C1443      C1448   1.523       .  S
C1444      C1445   1.401       .  A
C1444      H1449   1.083       .  S
C1445      C1446   1.419       .  A
C1446      C1450   1.516       .  S
C1447      C1452   1.414       .  A
C1447      C1456   1.400       .  A
C1448      F1464   1.382       .  S
C1448      F1465   1.380       .  S
C1448      F1466   1.385       .  S
C1450      F1461   1.384       .  S
C1450      F1462   1.382       .  S
C1450      F1463   1.382       .  S
C1452      C1453   1.405       .  A
C1452      C1457   1.516       .  S
C1453      C1454   1.401       .  A
C1453      H1458   1.083       .  S
C1454      C1455   1.414       .  A
C1455      C1456   1.401       .  A
C1455      C1459   1.515       .  S
C1456      H1460   1.084       .  S
C1457      F1470   1.385       .  S
C1457      F1471   1.383       .  S
C1457      F1472   1.382       .  S
C1459      F1467   1.385       .  S
C1459      F1468   1.383       .  S
C1459      F1469   1.380       .  S
C1473      C1474   1.403       .  A
C1473      C1478   1.411       .  A
C1473      H1483   1.083       .  S
C1474      C1479   1.486       .  S
C1474      C1475   1.416       .  A
C1475      C1476   1.405       .  A
C1475      C1480   1.521       .  S
C1476      C1477   1.404       .  A
C1476      H1481   1.084       .  S
C1477      C1478   1.418       .  A
C1478      C1482   1.518       .  S
C1479      C1484   1.412       .  A
C1479      C1488   1.403       .  A
C1480      F1496   1.383       .  S
C1480      F1497   1.382       .  S
C1480      F1498   1.385       .  S
C1482      F1493   1.384       .  S
C1482      F1494   1.383       .  S
C1482      F1495   1.383       .  S
C1484      C1485   1.405       .  A
C1484      C1489   1.520       .  S
C1485      C1486   1.409   1_655  A
C1485      H1490   1.083   1_655  S
C1486      C1487   1.423   1_455  A
C1487      C1488   1.412       .  A
C1487      C1491   1.518       .  S
C1488      H1492   1.083       .  S
C1489      F1502   1.384       .  S
C1489      F1503   1.383       .  S
C1489      F1504   1.382       .  S
C1491      F1499   1.385       .  S
C1491      F1500   1.383       .  S
C1491      F1501   1.383       .  S
C1505      C1506   1.399       .  A
C1505      C1510   1.406       .  A
C1505      H1515   1.083       .  S
C1506      C1511   1.480       .  S
C1506      C1507   1.411       .  A
C1507      C1508   1.405       .  A
C1507      C1512   1.518       .  S
C1508      C1509   1.408       .  A
C1508      H1513   1.083       .  S
C1509      C1510   1.425       .  A
C1510      C1514   1.521       .  S
C1511      C1516   1.417       .  A
C1511      C1520   1.401       .  A
C1512      F1528   1.382       .  S
C1512      F1529   1.382       .  S
C1512      F1530   1.384       .  S
C1514      F1525   1.385       .  S
C1514      F1526   1.383       .  S
C1514      F1527   1.383       .  S
C1516      C1517   1.404       .  A
C1516      C1521   1.521       .  S
C1517      C1518   1.403       .  A
C1517      H1522   1.084       .  S
C1518      C1519   1.416       .  A
C1519      C1520   1.406       .  A
C1519      C1523   1.517   1_565  S
C1520      H1524   1.083       .  S
C1521      F1534   1.385       .  S
C1521      F1535   1.382       .  S
C1521      F1536   1.382       .  S
C1523      F1531   1.385       .  S
C1523      F1532   1.382       .  S
C1523      F1533   1.383       .  S
C1537      C1538   1.398       .  A
C1537      C1542   1.406       .  A
C1537      H1547   1.083       .  S
C1538      C1543   1.478       .  S
C1538      C1539   1.414       .  A
C1539      C1540   1.403       .  A
C1539      C1544   1.521       .  S
C1540      C1541   1.407       .  A
C1540      H1545   1.082       .  S
C1541      C1542   1.425       .  A
C1542      C1546   1.517       .  S
C1543      C1548   1.416       .  A
C1543      C1552   1.402       .  A
C1544      F1560   1.382       .  S
C1544      F1561   1.383       .  S
C1544      F1562   1.384       .  S
C1546      F1557   1.383       .  S
C1546      F1558   1.385       .  S
C1546      F1559   1.380       .  S
C1548      C1549   1.404       .  A
C1548      C1553   1.521       .  S
C1549      C1550   1.401   1_655  A
C1549      H1554   1.084       .  S
C1550      C1551   1.413       .  A
C1551      C1552   1.405   1_455  A
C1551      C1555   1.517       .  S
C1552      H1556   1.083       .  S
C1553      F1566   1.385       .  S
C1553      F1567   1.382       .  S
C1553      F1568   1.383       .  S
C1555      F1563   1.384       .  S
C1555      F1564   1.383       .  S
C1555      F1565   1.382       .  S
C1569      C1570   1.399       .  A
C1569      C1574   1.405       .  A
C1569      H1579   1.083       .  S
C1570      C1575   1.483       .  S
C1570      C1571   1.413       .  A
C1571      C1572   1.409       .  A
C1571      C1576   1.519       .  S
C1572      C1573   1.409       .  A
C1572      H1577   1.083       .  S
C1573      C1574   1.426       .  A
C1574      C1578   1.523       .  S
C1575      C1580   1.416       .  A
C1575      C1584   1.402       .  A
C1576      F1592   1.382       .  S
C1576      F1593   1.381       .  S
C1576      F1594   1.385       .  S
C1578      F1589   1.383       .  S
C1578      F1590   1.385       .  S
C1578      F1591   1.384       .  S
C1580      C1581   1.408       .  A
C1580      C1585   1.519       .  S
C1581      C1582   1.403       .  A
C1581      H1586   1.083   1_565  S
C1582      C1583   1.417       .  A
C1583      C1584   1.405       .  A
C1583      C1587   1.520       .  S
C1584      H1588   1.083       .  S
C1585      F1598   1.384       .  S
C1585      F1599   1.382       .  S
C1585      F1600   1.381       .  S
C1587      F1595   1.385       .  S
C1587      F1596   1.383       .  S
C1587      F1597   1.382       .  S
C1601      C1602   1.402       .  A
C1601      C1606   1.410       .  A
C1601      H1611   1.083       .  S
C1602      C1607   1.490       .  S
C1602      C1603   1.416       .  A
C1603      C1604   1.410       .  A
C1603      C1608   1.519       .  S
C1604      C1605   1.407       .  A
C1604      H1609   1.083       .  S
C1605      C1606   1.423       .  A
C1606      C1610   1.520       .  S
C1607      C1612   1.416       .  A
C1607      C1616   1.402       .  A
C1608      F1624   1.383       .  S
C1608      F1625   1.382       .  S
C1608      F1626   1.384       .  S
C1610      F1621   1.382       .  S
C1610      F1622   1.385       .  S
C1610      F1623   1.384       .  S
C1612      C1613   1.410       .  A
C1612      C1617   1.519       .  S
C1613      C1614   1.406       .  A
C1613      H1618   1.083       .  S
C1614      C1615   1.421       .  A
C1615      C1616   1.410       .  A
C1615      C1619   1.519       .  S
C1616      H1620   1.083       .  S
C1617      F1630   1.385       .  S
C1617      F1631   1.382       .  S
C1617      F1632   1.382       .  S
C1619      F1627   1.384       .  S
C1619      F1628   1.384       .  S
C1619      F1629   1.382       .  S
C1633      C1634   1.402       .  A
C1633      C1638   1.415       .  A
C1633      H1643   1.083   1_455  S
C1634      C1639   1.490   1_455  S
C1634      C1635   1.414       .  A
C1635      C1636   1.403       .  A
C1635      C1640   1.523       .  S
C1636      C1637   1.412       .  A
C1636      H1641   1.082       .  S
C1637      C1638   1.428       .  A
C1638      C1642   1.519       .  S
C1639      C1644   1.415       .  A
C1639      C1648   1.402   1_655  A
C1640      F1656   1.382       .  S
C1640      F1657   1.383       .  S
C1640      F1658   1.385       .  S
C1642      F1653   1.385   1_455  S
C1642      F1654   1.383       .  S
C1642      F1655   1.384       .  S
C1644      C1645   1.405       .  A
C1644      C1649   1.521       .  S
C1645      C1646   1.408       .  A
C1645      H1650   1.083       .  S
C1646      C1647   1.424       .  A
C1647      C1648   1.413   1_655  A
C1647      C1651   1.518       .  S
C1648      H1652   1.083       .  S
C1649      F1662   1.385       .  S
C1649      F1663   1.382       .  S
C1649      F1664   1.383       .  S
C1651      F1659   1.385   1_655  S
C1651      F1660   1.383       .  S
C1651      F1661   1.382   1_655  S
C1665      C1666   1.404       .  A
C1665      C1670   1.411       .  A
C1665      H1675   1.083       .  S
C1666      C1671   1.484       .  S
C1666      C1667   1.417       .  A
C1667      C1668   1.401       .  A
C1667      C1672   1.522       .  S
C1668      C1669   1.401       .  A
C1668      H1673   1.084       .  S
C1669      C1670   1.418       .  A
C1670      C1674   1.518       .  S
C1671      C1676   1.418       .  A
C1671      C1680   1.403       .  A
C1672      F1688   1.382       .  S
C1672      F1689   1.383       .  S
C1672      F1690   1.385       .  S
C1674      F1685   1.383       .  S
C1674      F1686   1.385       .  S
C1674      F1687   1.383       .  S
C1676      C1677   1.405       .  A
C1676      C1681   1.520       .  S
C1677      C1678   1.400       .  A
C1677      H1682   1.084       .  S
C1678      C1679   1.415       .  A
C1679      C1680   1.408       .  A
C1679      C1683   1.516       .  S
C1680      H1684   1.083       .  S
C1681      F1694   1.385       .  S
C1681      F1695   1.382       .  S
C1681      F1696   1.383       .  S
C1683      F1691   1.385       .  S
C1683      F1692   1.381       .  S
C1683      F1693   1.383       .  S
C1697      C1698   1.398       .  A
C1697      C1702   1.403       .  A
C1697      H1707   1.084       .  S
C1698      C1703   1.478       .  S
C1698      C1699   1.410       .  A
C1699      C1700   1.407       .  A
C1699      C1704   1.517       .  S
C1700      C1701   1.411       .  A
C1700      H1705   1.082       .  S
C1701      C1702   1.428       .  A
C1702      C1706   1.523       .  S
C1703      C1708   1.414       .  A
C1703      C1712   1.401       .  A
C1704      F1720   1.381       .  S
C1704      F1721   1.383       .  S
C1704      F1722   1.384       .  S
C1706      F1717   1.385       .  S
C1706      F1718   1.383       .  S
C1706      F1719   1.384       .  S
C1708      C1709   1.403       .  A
C1708      C1713   1.517       .  S
C1709      C1710   1.406       .  A
C1709      H1714   1.084       .  S
C1710      C1711   1.422       .  A
C1711      C1712   1.402       .  A
C1711      C1715   1.521       .  S
C1712      H1716   1.084       .  S
C1713      F1726   1.383       .  S
C1713      F1727   1.383       .  S
C1713      F1728   1.382       .  S
C1715      F1723   1.383       .  S
C1715      F1724   1.384       .  S
C1715      F1725   1.385       .  S
C1729      C1730   1.400       .  A
C1729      C1734   1.402       .  A
C1729      H1739   1.084   1_455  S
C1730      C1735   1.484       .  S
C1730      C1731   1.418       .  A
C1731      C1732   1.411       .  A
C1731      C1736   1.518       .  S
C1732      C1733   1.403       .  A
C1732      H1737   1.083       .  S
C1733      C1734   1.417       .  A
C1734      C1738   1.518   1_455  S
C1735      C1740   1.417   1_455  A
C1735      C1744   1.401       .  A
C1736      F1752   1.382       .  S
C1736      F1753   1.382       .  S
C1736      F1754   1.384       .  S
C1738      F1749   1.385       .  S
C1738      F1750   1.382   1_655  S
C1738      F1751   1.381       .  S
C1740      C1741   1.409       .  A
C1740      C1745   1.517       .  S
C1741      C1742   1.402       .  A
C1741      H1746   1.083       .  S
C1742      C1743   1.418   1_655  A
C1743      C1744   1.403       .  A
C1743      C1747   1.521       .  S
C1744      H1748   1.084       .  S
C1745      F1758   1.385       .  S
C1745      F1759   1.382       .  S
C1745      F1760   1.382       .  S
C1747      F1755   1.382   1_455  S
C1747      F1756   1.383       .  S
C1747      F1757   1.385       .  S
C1761      C1762   1.401       .  A
C1761      C1766   1.410       .  A
C1761      H1771   1.083       .  S
C1762      C1767   1.490       .  S
C1762      C1763   1.416       .  A
C1763      C1764   1.407       .  A
C1763      C1768   1.520       .  S
C1764      C1765   1.408   1_455  A
C1764      H1769   1.082       .  S
C1765      C1766   1.428   1_655  A
C1766      C1770   1.521   1_455  S
C1767      C1772   1.418       .  A
C1767      C1776   1.400       .  A
C1768      F1784   1.382       .  S
C1768      F1785   1.382       .  S
C1768      F1786   1.384       .  S
C1770      F1781   1.384       .  S
C1770      F1782   1.385       .  S
C1770      F1783   1.383       .  S
C1772      C1773   1.415       .  A
C1772      C1777   1.517       .  S
C1773      C1774   1.405       .  A
C1773      H1778   1.083       .  S
C1774      C1775   1.419       .  A
C1775      C1776   1.403       .  A
C1775      C1779   1.519       .  S
C1776      H1780   1.083       .  S
C1777      F1790   1.384       .  S
C1777      F1791   1.382       .  S
C1777      F1792   1.382       .  S
C1779      F1787   1.381       .  S
C1779      F1788   1.382       .  S
C1779      F1789   1.385       .  S
C1793      C1794   1.400       .  A
C1793      C1798   1.409       .  A
C1793      H1803   1.083       .  S
C1794      C1799   1.480       .  S
C1794      C1795   1.413       .  A
C1795      C1796   1.404       .  A
C1795      C1800   1.522       .  S
C1796      C1797   1.410   1_545  A
C1796      H1801   1.081       .  S
C1797      C1798   1.426   1_565  A
C1798      C1802   1.520   1_545  S
C1799      C1804   1.415       .  A
C1799      C1808   1.399       .  A
C1800      F1816   1.382       .  S
C1800      F1817   1.381       .  S
C1800      F1818   1.384       .  S
C1802      F1813   1.383       .  S
C1802      F1814   1.385       .  S
C1802      F1815   1.383       .  S
C1804      C1805   1.410       .  A
C1804      C1809   1.518       .  S
C1805      C1806   1.405       .  A
C1805      H1810   1.082       .  S
C1806      C1807   1.419       .  A
C1807      C1808   1.400       .  A
C1807      C1811   1.521       .  S
C1808      H1812   1.084       .  S
C1809      F1822   1.385       .  S
C1809      F1823   1.382       .  S
C1809      F1824   1.381       .  S
C1811      F1819   1.382       .  S
C1811      F1820   1.383       .  S
C1811      F1821   1.385       .  S
C1825      C1826   1.400       .  A
C1825      C1830   1.404       .  A
C1825      H1835   1.085       .  S
C1826      C1831   1.484       .  S
C1826      C1827   1.417       .  A
C1827      C1828   1.406       .  A
C1827      C1832   1.519       .  S
C1828      C1829   1.403       .  A
C1828      H1833   1.083       .  S
C1829      C1830   1.420       .  A
C1830      C1834   1.519   1_455  S
C1831      C1836   1.416       .  A
C1831      C1840   1.402       .  A
C1832      F1848   1.382       .  S
C1832      F1849   1.383       .  S
C1832      F1850   1.385       .  S
C1834      F1845   1.383       .  S
C1834      F1846   1.384       .  S
C1834      F1847   1.381       .  S
C1836      C1837   1.403       .  A
C1836      C1841   1.521       .  S
C1837      C1838   1.405       .  A
C1837      H1842   1.083       .  S
C1838      C1839   1.422       .  A
C1839      C1840   1.410       .  A
C1839      C1843   1.519       .  S
C1840      H1844   1.083       .  S
C1841      F1854   1.385       .  S
C1841      F1855   1.382       .  S
C1841      F1856   1.383       .  S
C1843      F1851   1.385       .  S
C1843      F1852   1.384       .  S
C1843      F1853   1.383       .  S
C1857      C1858   1.399       .  A
C1857      C1862   1.407       .  A
C1857      H1867   1.083       .  S
C1858      C1863   1.488       .  S
C1858      C1859   1.414       .  A
C1859      C1860   1.410       .  A
C1859      C1864   1.520       .  S
C1860      C1861   1.411       .  A
C1860      H1865   1.082       .  S
C1861      C1862   1.429       .  A
C1862      C1866   1.523       .  S
C1863      C1868   1.417       .  A
C1863      C1872   1.401       .  A
C1864      F1880   1.382       .  S
C1864      F1881   1.381       .  S
C1864      F1882   1.385       .  S
C1866      F1877   1.383       .  S
C1866      F1878   1.385       .  S
C1866      F1879   1.384       .  S
C1868      C1869   1.411   1_545  A
C1868      C1873   1.519       .  S
C1869      C1870   1.405       .  A
C1869      H1874   1.083       .  S
C1870      C1871   1.418   1_565  A
C1871      C1872   1.405       .  A
C1871      C1875   1.516       .  S
C1872      H1876   1.083       .  S
C1873      F1886   1.384       .  S
C1873      F1887   1.382       .  S
C1873      F1888   1.382       .  S
C1875      F1883   1.383       .  S
C1875      F1884   1.382       .  S
C1875      F1885   1.385       .  S
C1889      C1890   1.400       .  A
C1889      C1894   1.402       .  A
C1889      H1899   1.083       .  S
C1890      C1895   1.474       .  S
C1890      C1891   1.415       .  A
C1891      C1892   1.402       .  A
C1891      C1896   1.520       .  S
C1892      C1893   1.402       .  A
C1892      H1897   1.083       .  S
C1893      C1894   1.417       .  A
C1894      C1898   1.519       .  S
C1895      C1900   1.414       .  A
C1895      C1904   1.398       .  A
C1896      F1912   1.382       .  S
C1896      F1913   1.383       .  S
C1896      F1914   1.385       .  S
C1898      F1909   1.382       .  S
C1898      F1910   1.385       .  S
C1898      F1911   1.384       .  S
C1900      C1901   1.402       .  A
C1900      C1905   1.520       .  S
C1901      C1902   1.404       .  A
C1901      H1906   1.083       .  S
C1902      C1903   1.423       .  A
C1903      C1904   1.403       .  A
C1903      C1907   1.520       .  S
C1904      H1908   1.083       .  S
C1905      F1918   1.384       .  S
C1905      F1919   1.382       .  S
C1905      F1920   1.383       .  S
C1907      F1915   1.385       .  S
C1907      F1916   1.381       .  S
C1907      F1917   1.383       .  S
C1921      C1922   1.401   1_455  A
C1921      C1926   1.409   1_455  A
C1921      H1931   1.083       .  S
C1922      C1927   1.482   1_655  S
C1922      C1923   1.415       .  A
C1923      C1924   1.402       .  A
C1923      C1928   1.521       .  S
C1924      C1925   1.406       .  A
C1924      H1929   1.083       .  S
C1925      C1926   1.422       .  A
C1926      C1930   1.518   1_655  S
C1927      C1932   1.414       .  A
C1927      C1936   1.401       .  A
C1928      F1944   1.382       .  S
C1928      F1945   1.383       .  S
C1928      F1946   1.385       .  S
C1930      F1941   1.383       .  S
C1930      F1942   1.385       .  S
C1930      F1943   1.383   1_455  S
C1932      C1933   1.400       .  A
C1932      C1937   1.522       .  S
C1933      C1934   1.406       .  A
C1933      H1938   1.083       .  S
C1934      C1935   1.423       .  A
C1935      C1936   1.411       .  A
C1935      C1939   1.517       .  S
C1936      H1940   1.083   1_455  S
C1937      F1950   1.385       .  S
C1937      F1951   1.382       .  S
C1937      F1952   1.383       .  S
C1939      F1947   1.382       .  S
C1939      F1948   1.381       .  S
C1939      F1949   1.385       .  S
C1953      C1954   1.398       .  A
C1953      C1958   1.397       .  A
C1953      H1963   1.084       .  S
C1954      C1959   1.480       .  S
C1954      C1955   1.416       .  A
C1955      C1956   1.411       .  A
C1955      C1960   1.517       .  S
C1956      C1957   1.405       .  A
C1956      H1961   1.083       .  S
C1957      C1958   1.418       .  A
C1958      C1962   1.519       .  S
C1959      C1964   1.418       .  A
C1959      C1968   1.402       .  A
C1960      F1976   1.382       .  S
C1960      F1977   1.382       .  S
C1960      F1978   1.385       .  S
C1962      F1973   1.385       .  S
C1962      F1974   1.382       .  S
C1962      F1975   1.383       .  S
C1964      C1965   1.404       .  A
C1964      C1969   1.519       .  S
C1965      C1966   1.401       .  A
C1965      H1970   1.084       .  S
C1966      C1967   1.414       .  A
C1967      C1968   1.404       .  A
C1967      C1971   1.518       .  S
C1968      H1972   1.082       .  S
C1969      F1982   1.385       .  S
C1969      F1983   1.382       .  S
C1969      F1984   1.383       .  S
C1971      F1979   1.383       .  S
C1971      F1980   1.383       .  S
C1971      F1981   1.384       .  S
C1985      C1986   1.401       .  A
C1985      C1990   1.403       .  A
C1985      H1995   1.084       .  S
C1986      C1991   1.478       .  S
C1986      C1987   1.414       .  A
C1987      C1988   1.406       .  A
C1987      C1992   1.518       .  S
C1988      C1989   1.402       .  A
C1988      H1993   1.082       .  S
C1989      C1990   1.415       .  A
C1990      C1994   1.517       .  S
C1991      C1996   1.414       .  A
C1991      C2000   1.401       .  A
C1992      F2008   1.382       .  S
C1992      F2009   1.382       .  S
C1992      F2010   1.385       .  S
C1994      F2005   1.382       .  S
C1994      F2006   1.385       .  S
C1994      F2007   1.383       .  S
C1996      C1997   1.399       .  A
C1996      C2001   1.524       .  S
C1997      C1998   1.408       .  A
C1997      H2002   1.083       .  S
C1998      C1999   1.423       .  A
C1999      C2000   1.411       .  A
C1999      C2003   1.518       .  S
C2000      H2004   1.083       .  S
C2001      F2014   1.385       .  S
C2001      F2015   1.382       .  S
C2001      F2016   1.382       .  S
C2003      F2011   1.385       .  S
C2003      F2012   1.383       .  S
C2003      F2013   1.383       .  S
C2017      C2018   1.402       .  A
C2017      C2022   1.409       .  A
C2017      H2027   1.083       .  S
C2018      C2023   1.486       .  S
C2018      C2019   1.415       .  A
C2019      C2020   1.407       .  A
C2019      C2024   1.519       .  S
C2020      C2021   1.404       .  A
C2020      H2025   1.082       .  S
C2021      C2022   1.418       .  A
C2022      C2026   1.518       .  S
C2023      C2028   1.412       .  A
C2023      C2032   1.401       .  A
C2024      F2040   1.383       .  S
C2024      F2041   1.382       .  S
C2024      F2042   1.384       .  S
C2026      F2037   1.383       .  S
C2026      F2038   1.384       .  S
C2026      F2039   1.383       .  S
C2028      C2029   1.403       .  A
C2028      C2033   1.523       .  S
C2029      C2030   1.412       .  A
C2029      H2034   1.081       .  S
C2030      C2031   1.429       .  A
C2031      C2032   1.414       .  A
C2031      C2035   1.520       .  S
C2032      H2036   1.083       .  S
C2033      F2046   1.385       .  S
C2033      F2047   1.382       .  S
C2033      F2048   1.382       .  S
C2035      F2043   1.385       .  S
C2035      F2044   1.383       .  S
C2035      F2045   1.384       .  S
C2049      C2050   1.400       .  A
C2049      C2054   1.403       .  A
C2049      H2059   1.083       .  S
C2050      C2055   1.478       .  S
C2050      C2051   1.415       .  A
C2051      C2052   1.406       .  A
C2051      C2056   1.519       .  S
C2052      C2053   1.403       .  A
C2052      H2057   1.083       .  S
C2053      C2054   1.418       .  A
C2054      C2058   1.520       .  S
C2055      C2060   1.414       .  A
C2055      C2064   1.401       .  A
C2056      F2072   1.382       .  S
C2056      F2073   1.382       .  S
C2056      F2074   1.384       .  S
C2058      F2069   1.382       .  S
C2058      F2070   1.385       .  S
C2058      F2071   1.384       .  S
C2060      C2061   1.403       .  A
C2060      C2065   1.520       .  S
C2061      C2062   1.404       .  A
C2061      H2066   1.082       .  S
C2062      C2063   1.418       .  A
C2063      C2064   1.406       .  A
C2063      C2067   1.519       .  S
C2064      H2068   1.083       .  S
C2065      F2078   1.384       .  S
C2065      F2079   1.382       .  S
C2065      F2080   1.382       .  S
C2067      F2075   1.385       .  S
C2067      F2076   1.384       .  S
C2067      F2077   1.382       .  S
C2081      C2082   1.399       .  A
C2081      C2086   1.401       .  A
C2081      H2091   1.084       .  S
C2082      C2087   1.479       .  S
C2082      C2083   1.413       .  A
C2083      C2084   1.410       .  A
C2083      C2088   1.517       .  S
C2084      C2085   1.406       .  A
C2084      H2089   1.083       .  S
C2085      C2086   1.419       .  A
C2086      C2090   1.521       .  S
C2087      C2092   1.415       .  A
C2087      C2096   1.404       .  A
C2088      F2104   1.383       .  S
C2088      F2105   1.382       .  S
C2088      F2106   1.384       .  S
C2090      F2101   1.382       .  S
C2090      F2102   1.385       .  S
C2090      F2103   1.383       .  S
C2092      C2093   1.399       .  A
C2092      C2097   1.522       .  S
C2093      C2094   1.402       .  A
C2093      H2098   1.082       .  S
C2094      C2095   1.417       .  A
C2095      C2096   1.410       .  A
C2095      C2099   1.518       .  S
C2096      H2100   1.083       .  S
C2097      F2110   1.385       .  S
C2097      F2111   1.382       .  S
C2097      F2112   1.381       .  S
C2099      F2107   1.385       .  S
C2099      F2108   1.384       .  S
C2099      F2109   1.383       .  S
C2113      C2114   1.401       .  A
C2113      C2118   1.412       .  A
C2113      H2123   1.083       .  S
C2114      C2119   1.483       .  S
C2114      C2115   1.414       .  A
C2115      C2116   1.403       .  A
C2115      C2120   1.523       .  S
C2116      C2117   1.407       .  A
C2116      H2121   1.082       .  S
C2117      C2118   1.425       .  A
C2118      C2122   1.519       .  S
C2119      C2124   1.412       .  A
C2119      C2128   1.400       .  A
C2120      F2136   1.383       .  S
C2120      F2137   1.381       .  S
C2120      F2138   1.385       .  S
C2122      F2133   1.385       .  S
C2122      F2134   1.383       .  S
C2122      F2135   1.383       .  S
C2124      C2125   1.407       .  A
C2124      C2129   1.518       .  S
C2125      C2126   1.407       .  A
C2125      H2130   1.083       .  S
C2126      C2127   1.422       .  A
C2127      C2128   1.407       .  A
C2127      C2131   1.519       .  S
C2128      H2132   1.083       .  S
C2129      F2142   1.385       .  S
C2129      F2143   1.383       .  S
C2129      F2144   1.382       .  S
C2131      F2139   1.385       .  S
C2131      F2140   1.383       .  S
C2131      F2141   1.381       .  S
C2145      C2146   1.402       .  A
C2145      C2150   1.412       .  A
C2145      H2155   1.083       .  S
C2146      C2151   1.486       .  S
C2146      C2147   1.413       .  A
C2147      C2148   1.405       .  A
C2147      C2152   1.522       .  S
C2148      C2149   1.410       .  A
C2148      H2153   1.081       .  S
C2149      C2150   1.423       .  A
C2150      C2154   1.517       .  S
C2151      C2156   1.415       .  A
C2151      C2160   1.404       .  A
C2152      F2168   1.383       .  S
C2152      F2169   1.382       .  S
C2152      F2170   1.385       .  S
C2154      F2165   1.384       .  S
C2154      F2166   1.383       .  S
C2154      F2167   1.382       .  S
C2156      C2157   1.404       .  A
C2156      C2161   1.521       .  S
C2157      C2158   1.404       .  A
C2157      H2162   1.083       .  S
C2158      C2159   1.419       .  A
C2159      C2160   1.412       .  A
C2159      C2163   1.518       .  S
C2160      H2164   1.083       .  S
C2161      F2174   1.385       .  S
C2161      F2175   1.382       .  S
C2161      F2176   1.382       .  S
C2163      F2171   1.385       .  S
C2163      F2172   1.383       .  S
C2163      F2173   1.383       .  S
C2177      C2178   1.399       .  A
C2177      C2182   1.407       .  A
C2177      H2187   1.084       .  S
C2178      C2183   1.485       .  S
C2178      C2179   1.413       .  A
C2179      C2180   1.409       .  A
C2179      C2184   1.519       .  S
C2180      C2181   1.411       .  A
C2180      H2185   1.082       .  S
C2181      C2182   1.424       .  A
C2182      C2186   1.519       .  S
C2183      C2188   1.419       .  A
C2183      C2192   1.404       .  A
C2184      F2200   1.383       .  S
C2184      F2201   1.382       .  S
C2184      F2202   1.384       .  S
C2186      F2197   1.382       .  S
C2186      F2198   1.385       .  S
C2186      F2199   1.384       .  S
C2188      C2189   1.405       .  A
C2188      C2193   1.522       .  S
C2189      C2190   1.400       .  A
C2189      H2194   1.084       .  S
C2190      C2191   1.415       .  A
C2191      C2192   1.411       .  A
C2191      C2195   1.516       .  S
C2192      H2196   1.083       .  S
C2193      F2206   1.385       .  S
C2193      F2207   1.382       .  S
C2193      F2208   1.381       .  S
C2195      F2203   1.385       .  S
C2195      F2204   1.383       .  S
C2195      F2205   1.383       .  S
C2209      C2210   1.402       .  A
C2209      C2214   1.407       .  A
C2209      H2219   1.083       .  S
C2210      C2215   1.482       .  S
C2210      C2211   1.414       .  A
C2211      C2212   1.404       .  A
C2211      C2216   1.519       .  S
C2212      C2213   1.405       .  A
C2212      H2217   1.083       .  S
C2213      C2214   1.420       .  A
C2214      C2218   1.520       .  S
C2215      C2220   1.417       .  A
C2215      C2224   1.400       .  A
C2216      F2232   1.382       .  S
C2216      F2233   1.383       .  S
C2216      F2234   1.385       .  S
C2218      F2229   1.383       .  S
C2218      F2230   1.385       .  S
C2218      F2231   1.382       .  S
C2220      C2221   1.406       .  A
C2220      C2225   1.519       .  S
C2221      C2222   1.402       .  A
C2221      H2226   1.083       .  S
C2222      C2223   1.420       .  A
C2223      C2224   1.406       .  A
C2223      C2227   1.520       .  S
C2224      H2228   1.083       .  S
C2225      F2238   1.384       .  S
C2225      F2239   1.382       .  S
C2225      F2240   1.383       .  S
C2227      F2235   1.385       .  S
C2227      F2236   1.381       .  S
C2227      F2237   1.384       .  S
C2241      C2242   1.402       .  A
C2241      C2246   1.413       .  A
C2241      H2251   1.083       .  S
C2242      C2247   1.485       .  S
C2242      C2243   1.413       .  A
C2243      C2244   1.404       .  A
C2243      C2248   1.522       .  S
C2244      C2245   1.411       .  A
C2244      H2249   1.082       .  S
C2245      C2246   1.425       .  A
C2246      C2250   1.518       .  S
C2247      C2252   1.417       .  A
C2247      C2256   1.403       .  A
C2248      F2264   1.382       .  S
C2248      F2265   1.382       .  S
C2248      F2266   1.385       .  S
C2250      F2261   1.383       .  S
C2250      F2262   1.385       .  S
C2250      F2263   1.383       .  S
C2252      C2253   1.407       .  A
C2252      C2257   1.520       .  S
C2253      C2254   1.403       .  A
C2253      H2258   1.084       .  S
C2254      C2255   1.414       .  A
C2255      C2256   1.408       .  A
C2255      C2259   1.516       .  S
C2256      H2260   1.083       .  S
C2257      F2270   1.385       .  S
C2257      F2271   1.382       .  S
C2257      F2272   1.382       .  S
C2259      F2267   1.384       .  S
C2259      F2268   1.381       .  S
C2259      F2269   1.383       .  S
C2273      C2274   1.400       .  A
C2273      C2278   1.404       .  A
C2273      H2283   1.083       .  S
C2274      C2279   1.485       .  S
C2274      C2275   1.416       .  A
C2275      C2276   1.411       .  A
C2275      C2280   1.518       .  S
C2276      C2277   1.405       .  A
C2276      H2281   1.083       .  S
C2277      C2278   1.419       .  A
C2278      C2282   1.520       .  S
C2279      C2284   1.418       .  A
C2279      C2288   1.399       .  A
C2280      F2296   1.382       .  S
C2280      F2297   1.381       .  S
C2280      F2298   1.385       .  S
C2282      F2293   1.385       .  S
C2282      F2294   1.382       .  S
C2282      F2295   1.381       .  S
C2284      C2285   1.410       .  A
C2284      C2289   1.519       .  S
C2285      C2286   1.405       .  A
C2285      H2290   1.083       .  S
C2286      C2287   1.423       .  A
C2287      C2288   1.404       .  A
C2287      C2291   1.519       .  S
C2288      H2292   1.085       .  S
C2289      F2302   1.384       .  S
C2289      F2303   1.382       .  S
C2289      F2304   1.382       .  S
C2291      F2299   1.384       .  S
C2291      F2300   1.383       .  S
C2291      F2301   1.382       .  S
C2305      C2306   1.402       .  A
C2305      C2310   1.406       .  A
C2305      H2315   1.083       .  S
C2306      C2311   1.481       .  S
C2306      C2307   1.415       .  A
C2307      C2308   1.404       .  A
C2307      C2312   1.520       .  S
C2308      C2309   1.405       .  A
C2308      H2313   1.084       .  S
C2309      C2310   1.416       .  A
C2310      C2314   1.518       .  S
C2311      C2316   1.415       .  A
C2311      C2320   1.401       .  A
C2312      F2328   1.382       .  S
C2312      F2329   1.382       .  S
C2312      F2330   1.385       .  S
C2314      F2325   1.384       .  S
C2314      F2326   1.384       .  S
C2314      F2327   1.382       .  S
C2316      C2317   1.402       .  A
C2316      C2321   1.523       .  S
C2317      C2318   1.406       .  A
C2317      H2322   1.083       .  S
C2318      C2319   1.422       .  A
C2319      C2320   1.409       .  A
C2319      C2323   1.519       .  S
C2320      H2324   1.083       .  S
C2321      F2334   1.385       .  S
C2321      F2335   1.382       .  S
C2321      F2336   1.382       .  S
C2323      F2331   1.382       .  S
C2323      F2332   1.384       .  S
C2323      F2333   1.385       .  S
C2337      C2338   1.398       .  A
C2337      C2342   1.402       .  A
C2337      H2347   1.083       .  S
C2338      C2343   1.482       .  S
C2338      C2339   1.414       .  A
C2339      C2340   1.409       .  A
C2339      C2344   1.518       .  S
C2340      C2341   1.408       .  A
C2340      H2345   1.083       .  S
C2341      C2342   1.423       .  A
C2342      C2346   1.522       .  S
C2343      C2348   1.416       .  A
C2343      C2352   1.401       .  A
C2344      F2360   1.382       .  S
C2344      F2361   1.382       .  S
C2344      F2362   1.385       .  S
C2346      F2357   1.383       .  S
C2346      F2358   1.385       .  S
C2346      F2359   1.383       .  S
C2348      C2349   1.406       .  A
C2348      C2353   1.520       .  S
C2349      C2350   1.404       .  A
C2349      H2354   1.083       .  S
C2350      C2351   1.420       .  A
C2351      C2352   1.407       .  A
C2351      C2355   1.519       .  S
C2352      H2356   1.083       .  S
C2353      F2366   1.384       .  S
C2353      F2367   1.382       .  S
C2353      F2368   1.382       .  S
C2355      F2363   1.385       .  S
C2355      F2364   1.382       .  S
C2355      F2365   1.382       .  S
C2369      C2370   1.400       .  A
C2369      C2374   1.409       .  A
C2369      H2379   1.083       .  S
C2370      C2375   1.483       .  S
C2370      C2371   1.413       .  A
C2371      C2372   1.404       .  A
C2371      C2376   1.520       .  S
C2372      C2373   1.407       .  A
C2372      H2377   1.083       .  S
C2373      C2374   1.426       .  A
C2374      C2378   1.521       .  S
C2375      C2380   1.416       .  A
C2375      C2384   1.401       .  A
C2376      F2392   1.382       .  S
C2376      F2393   1.382       .  S
C2376      F2394   1.384       .  S
C2378      F2389   1.385       .  S
C2378      F2390   1.383       .  S
C2378      F2391   1.384       .  S
C2380      C2381   1.408       .  A
C2380      C2385   1.520       .  S
C2381      C2382   1.403       .  A
C2381      H2386   1.083       .  S
C2382      C2383   1.415       .  A
C2383      C2384   1.405       .  A
C2383      C2387   1.518       .  S
C2384      H2388   1.083       .  S
C2385      F2398   1.385       .  S
C2385      F2399   1.382       .  S
C2385      F2400   1.382       .  S
C2387      F2395   1.382       .  S
C2387      F2396   1.383       .  S
C2387      F2397   1.384       .  S
C2401      C2402   1.403       .  A
C2401      C2406   1.410       .  A
C2401      H2411   1.083       .  S
C2402      C2407   1.487       .  S
C2402      C2403   1.415       .  A
C2403      C2404   1.406       .  A
C2403      C2408   1.520       .  S
C2404      C2405   1.404       .  A
C2404      H2409   1.080       .  S
C2405      C2406   1.419       .  A
C2406      C2410   1.518       .  S
C2407      C2412   1.416       .  A
C2407      C2416   1.404       .  A
C2408      F2424   1.382       .  S
C2408      F2425   1.383       .  S
C2408      F2426   1.383       .  S
C2410      F2421   1.384       .  S
C2410      F2422   1.385       .  S
C2410      F2423   1.382       .  S
C2412      C2413   1.402       .  A
C2412      C2417   1.522       .  S
C2413      C2414   1.405       .  A
C2413      H2418   1.083       .  S
C2414      C2415   1.422       .  A
C2415      C2416   1.413       .  A
C2415      C2419   1.518       .  S
C2416      H2420   1.083       .  S
C2417      F2430   1.385       .  S
C2417      F2431   1.382       .  S
C2417      F2432   1.383       .  S
C2419      F2427   1.385       .  S
C2419      F2428   1.383       .  S
C2419      F2429   1.384       .  S
C2433      C2434   1.399       .  A
C2433      C2438   1.404       .  A
C2433      H2443   1.083       .  S
C2434      C2439   1.481       .  S
C2434      C2435   1.412       .  A
C2435      C2436   1.408       .  A
C2435      C2440   1.518       .  S
C2436      C2437   1.409       .  A
C2436      H2441   1.083       .  S
C2437      C2438   1.423       .  A
C2438      C2442   1.522       .  S
C2439      C2444   1.416       .  A
C2439      C2448   1.401       .  A
C2440      F2456   1.382       .  S
C2440      F2457   1.382       .  S
C2440      F2458   1.385       .  S
C2442      F2453   1.385       .  S
C2442      F2454   1.383       .  S
C2442      F2455   1.384       .  S
C2444      C2445   1.404       .  A
C2444      C2449   1.522       .  S
C2445      C2446   1.404       .  A
C2445      H2450   1.083       .  S
C2446      C2447   1.420       .  A
C2447      C2448   1.408       .  A
C2447      C2451   1.518       .  S
C2448      H2452   1.083       .  S
C2449      F2462   1.384       .  S
C2449      F2463   1.382       .  S
C2449      F2464   1.382       .  S
C2451      F2459   1.385       .  S
C2451      F2460   1.382       .  S
C2451      F2461   1.384       .  S
C2465      C2466   1.397       .  A
C2465      C2470   1.406       .  A
C2465      H2475   1.083       .  S
C2466      C2471   1.481       .  S
C2466      C2467   1.414       .  A
C2467      C2468   1.407       .  A
C2467      C2472   1.521       .  S
C2468      C2469   1.408       .  A
C2468      H2473   1.083       .  S
C2469      C2470   1.428       .  A
C2470      C2474   1.522       .  S
C2471      C2476   1.416       .  A
C2471      C2480   1.400       .  A
C2472      F2488   1.382       .  S
C2472      F2489   1.382       .  S
C2472      F2490   1.384       .  S
C2474      F2485   1.385       .  S
C2474      F2486   1.383       .  S
C2474      F2487   1.381       .  S
C2476      C2477   1.409       .  A
C2476      C2481   1.517       .  S
C2477      C2478   1.403       .  A
C2477      H2482   1.083       .  S
C2478      C2479   1.417       .  A
C2479      C2480   1.401       .  A
C2479      C2483   1.521       .  S
C2480      H2484   1.084       .  S
C2481      F2494   1.385       .  S
C2481      F2495   1.382       .  S
C2481      F2496   1.382       .  S
C2483      F2491   1.385       .  S
C2483      F2492   1.383       .  S
C2483      F2493   1.382       .  S
C2497      C2498   1.405       .  A
C2497      C2502   1.414       .  A
C2497      H2507   1.083       .  S
C2498      C2503   1.489       .  S
C2498      C2499   1.416       .  A
C2499      C2500   1.403       .  A
C2499      C2504   1.522       .  S
C2500      C2501   1.404       .  A
C2500      H2505   1.083       .  S
C2501      C2502   1.418       .  A
C2502      C2506   1.517       .  S
C2503      C2508   1.415       .  A
C2503      C2512   1.405       .  A
C2504      F2520   1.382       .  S
C2504      F2521   1.383       .  S
C2504      F2522   1.385       .  S
C2506      F2517   1.385       .  S
C2506      F2518   1.382       .  S
C2506      F2519   1.383       .  S
C2508      C2509   1.404       .  A
C2508      C2513   1.521       .  S
C2509      C2510   1.406       .  A
C2509      H2514   1.084       .  S
C2510      C2511   1.418       .  A
C2511      C2512   1.413       .  A
C2511      C2515   1.517       .  S
C2512      H2516   1.083       .  S
C2513      F2526   1.385       .  S
C2513      F2527   1.382       .  S
C2513      F2528   1.383       .  S
C2515      F2523   1.385       .  S
C2515      F2524   1.382       .  S
C2515      F2525   1.384       .  S
C2529      C2530   1.403       .  A
C2529      C2534   1.406       .  A
C2529      H2539   1.083       .  S
C2530      C2535   1.491       .  S
C2530      C2531   1.418       .  A
C2531      C2532   1.412       .  A
C2531      C2536   1.519       .  S
C2532      C2533   1.405       .  A
C2532      H2537   1.083       .  S
C2533      C2534   1.417       .  A
C2534      C2538   1.519       .  S
C2535      C2540   1.413       .  A
C2535      C2544   1.400       .  A
C2536      F2552   1.381       .  S
C2536      F2553   1.382       .  S
C2536      F2554   1.385       .  S
C2538      F2549   1.382       .  S
C2538      F2550   1.385       .  S
C2538      F2551   1.383       .  S
C2540      C2541   1.409       .  A
C2540      C2545   1.520       .  S
C2541      C2542   1.413       .  A
C2541      H2546   1.082       .  S
C2542      C2543   1.429       .  A
C2543      C2544   1.410       .  A
C2543      C2547   1.521       .  S
C2544      H2548   1.083       .  S
C2545      F2558   1.385       .  S
C2545      F2559   1.382       .  S
C2545      F2560   1.382       .  S
C2547      F2555   1.383       .  S
C2547      F2556   1.384       .  S
C2547      F2557   1.385       .  S
C2561      C2562   1.402       .  A
C2561      C2566   1.407       .  A
C2561      H2571   1.083       .  S
C2562      C2567   1.483       .  S
C2562      C2563   1.414       .  A
C2563      C2564   1.405       .  A
C2563      C2568   1.520       .  S
C2564      C2565   1.408       .  A
C2564      H2569   1.083       .  S
C2565      C2566   1.421       .  A
C2566      C2570   1.518       .  S
C2567      C2572   1.416       .  A
C2567      C2576   1.402       .  A
C2568      F2584   1.382       .  S
C2568      F2585   1.383       .  S
C2568      F2586   1.384       .  S
C2570      F2581   1.384       .  S
C2570      F2582   1.385       .  S
C2570      F2583   1.382       .  S
C2572      C2573   1.408       .  A
C2572      C2577   1.517       .  S
C2573      C2574   1.402       .  A
C2573      H2578   1.083       .  S
C2574      C2575   1.415       .  A
C2575      C2576   1.403       .  A
C2575      C2579   1.520       .  S
C2576      H2580   1.083       .  S
C2577      F2590   1.385       .  S
C2577      F2591   1.382       .  S
C2577      F2592   1.382       .  S
C2579      F2587   1.382       .  S
C2579      F2588   1.382       .  S
C2579      F2589   1.385       .  S
C2593      C2594   1.401       .  A
C2593      C2598   1.406       .  A
C2593      H2603   1.083       .  S
C2594      C2599   1.479       .  S
C2594      C2595   1.415       .  A
C2595      C2596   1.406       .  A
C2595      C2600   1.520       .  S
C2596      C2597   1.405       .  A
C2596      H2601   1.083       .  S
C2597      C2598   1.418       .  A
C2598      C2602   1.520       .  S
C2599      C2604   1.414       .  A
C2599      C2608   1.399       .  A
C2600      F2616   1.383       .  S
C2600      F2617   1.381       .  S
C2600      F2618   1.385       .  S
C2602      F2613   1.385       .  S
C2602      F2614   1.384       .  S
C2602      F2615   1.382       .  S
C2604      C2605   1.407       .  A
C2604      C2609   1.519       .  S
C2605      C2606   1.404       .  A
C2605      H2610   1.083       .  S
C2606      C2607   1.420       .  A
C2607      C2608   1.404       .  A
C2607      C2611   1.519       .  S
C2608      H2612   1.083       .  S
C2609      F2622   1.384       .  S
C2609      F2623   1.383       .  S
C2609      F2624   1.381       .  S
C2611      F2619   1.385       .  S
C2611      F2620   1.383       .  S
C2611      F2621   1.380       .  S
C2625      C2626   1.402       .  A
C2625      C2630   1.412       .  A
C2625      H2635   1.083       .  S
C2626      C2631   1.485       .  S
C2626      C2627   1.415       .  A
C2627      C2628   1.403       .  A
C2627      C2632   1.521       .  S
C2628      C2629   1.405       .  A
C2628      H2633   1.082       .  S
C2629      C2630   1.421       .  A
C2630      C2634   1.517       .  S
C2631      C2636   1.414       .  A
C2631      C2640   1.402       .  A
C2632      F2648   1.382       .  S
C2632      F2649   1.382       .  S
C2632      F2650   1.385       .  S
C2634      F2645   1.383       .  S
C2634      F2646   1.385       .  S
C2634      F2647   1.382       .  S
C2636      C2637   1.404       .  A
C2636      C2641   1.520       .  S
C2637      C2638   1.405       .  A
C2637      H2642   1.080       .  S
C2638      C2639   1.422       .  A
C2639      C2640   1.411       .  A
C2639      C2643   1.519       .  S
C2640      H2644   1.083       .  S
C2641      F2654   1.384       .  S
C2641      F2655   1.382       .  S
C2641      F2656   1.383       .  S
C2643      F2651   1.384       .  S
C2643      F2652   1.383       .  S
C2643      F2653   1.384       .  S
C2657      C2658   1.402       .  A
C2657      C2662   1.412       .  A
C2657      H2667   1.083       .  S
C2658      C2663   1.484       .  S
C2658      C2659   1.415       .  A
C2659      C2660   1.404       .  A
C2659      C2664   1.522       .  S
C2660      C2661   1.405       .  A
C2660      H2665   1.083       .  S
C2661      C2662   1.421       .  A
C2662      C2666   1.518       .  S
C2663      C2668   1.416       .  A
C2663      C2672   1.404       .  A
C2664      F2680   1.383       .  S
C2664      F2681   1.383       .  S
C2664      F2682   1.384       .  S
C2666      F2677   1.383       .  S
C2666      F2678   1.385       .  S
C2666      F2679   1.383       .  S
C2668      C2669   1.402       .  A
C2668      C2673   1.521       .  S
C2669      C2670   1.401       .  A
C2669      H2674   1.081       .  S
C2670      C2671   1.417       .  A
C2671      C2672   1.409       .  A
C2671      C2675   1.517       .  S
C2672      H2676   1.084       .  S
C2673      F2686   1.385       .  S
C2673      F2687   1.382       .  S
C2673      F2688   1.383       .  S
C2675      F2683   1.384       .  S
C2675      F2684   1.381       .  S
C2675      F2685   1.383       .  S
C2689      C2690   1.400       .  A
C2689      C2694   1.408       .  A
C2689      H2699   1.083       .  S
C2690      C2695   1.473       .  S
C2690      C2691   1.415       .  A
C2691      C2692   1.398       .  A
C2691      C2696   1.524       .  S
C2692      C2693   1.403       .  A
C2692      H2697   1.083       .  S
C2693      C2694   1.419       .  A
C2694      C2698   1.515       .  S
C2695      C2700   1.412       .  A
C2695      C2704   1.400       .  A
C2696      F2712   1.382       .  S
C2696      F2713   1.382       .  S
C2696      F2714   1.385       .  S
C2698      F2709   1.382       .  S
C2698      F2710   1.385       .  S
C2698      F2711   1.382       .  S
C2700      C2701   1.401       .  A
C2700      C2705   1.519       .  S
C2701      C2702   1.403       .  A
C2701      H2706   1.084       .  S
C2702      C2703   1.417       .  A
C2703      C2704   1.403       .  A
C2703      C2707   1.518       .  S
C2704      H2708   1.083       .  S
C2705      F2718   1.385       .  S
C2705      F2719   1.382       .  S
C2705      F2720   1.383       .  S
C2707      F2715   1.385       .  S
C2707      F2716   1.382       .  S
C2707      F2717   1.381       .  S
C2721      C2722   1.401       .  A
C2721      C2726   1.404       .  A
C2721      H2731   1.083       .  S
C2722      C2727   1.485       .  S
C2722      C2723   1.418       .  A
C2723      C2724   1.411       .  A
C2723      C2728   1.519       .  S
C2724      C2725   1.403       .  A
C2724      H2729   1.083       .  S
C2725      C2726   1.418       .  A
C2726      C2730   1.520       .  S
C2727      C2732   1.417       .  A
C2727      C2736   1.402       .  A
C2728      F2744   1.381       .  S
C2728      F2745   1.382       .  S
C2728      F2746   1.384       .  S
C2730      F2741   1.385       .  S
C2730      F2742   1.382       .  S
C2730      F2743   1.384       .  S
C2732      C2733   1.410       .  A
C2732      C2737   1.518       .  S
C2733      C2734   1.405       .  A
C2733      H2738   1.083       .  S
C2734      C2735   1.418       .  A
C2735      C2736   1.403       .  A
C2735      C2739   1.520       .  S
C2736      H2740   1.084       .  S
C2737      F2750   1.385       .  S
C2737      F2751   1.382       .  S
C2737      F2752   1.381       .  S
C2739      F2747   1.385       .  S
C2739      F2748   1.382       .  S
C2739      F2749   1.384       .  S
C2753      C2754   1.401       .  A
C2753      C2758   1.406       .  A
C2753      H2763   1.083       .  S
C2754      C2759   1.485   1_554  S
C2754      C2755   1.416       .  A
C2755      C2756   1.407       .  A
C2755      C2760   1.520       .  S
C2756      C2757   1.405       .  A
C2756      H2761   1.083       .  S
C2757      C2758   1.419       .  A
C2758      C2762   1.518       .  S
C2759      C2764   1.416       .  A
C2759      C2768   1.401       .  A
C2760      F2776   1.381   1_554  S
C2760      F2777   1.383   1_554  S
C2760      F2778   1.385       .  S
C2762      F2773   1.383       .  S
C2762      F2774   1.384       .  S
C2762      F2775   1.381       .  S
C2764      C2765   1.406       .  A
C2764      C2769   1.520       .  S
C2765      C2766   1.405       .  A
C2765      H2770   1.083       .  S
C2766      C2767   1.421       .  A
C2767      C2768   1.407       .  A
C2767      C2771   1.519       .  S
C2768      H2772   1.083       .  S
C2769      F2782   1.385       .  S
C2769      F2783   1.382       .  S
C2769      F2784   1.382       .  S
C2771      F2779   1.385       .  S
C2771      F2780   1.383       .  S
C2771      F2781   1.383       .  S
C2785      C2786   1.402       .  A
C2785      C2790   1.411       .  A
C2785      H2795   1.083       .  S
C2786      C2791   1.485       .  S
C2786      C2787   1.414       .  A
C2787      C2788   1.403       .  A
C2787      C2792   1.522       .  S
C2788      C2789   1.409       .  A
C2788      H2793   1.083       .  S
C2789      C2790   1.423       .  A
C2790      C2794   1.519       .  S
C2791      C2796   1.413       .  A
C2791      C2800   1.400       .  A
C2792      F2808   1.382       .  S
C2792      F2809   1.383       .  S
C2792      F2810   1.384       .  S
C2794      F2805   1.383       .  S
C2794      F2806   1.385       .  S
C2794      F2807   1.383       .  S
C2796      C2797   1.403       .  A
C2796      C2801   1.523       .  S
C2797      C2798   1.412       .  A
C2797      H2802   1.082       .  S
C2798      C2799   1.429       .  A
C2799      C2800   1.411       .  A
C2799      C2803   1.520       .  S
C2800      H2804   1.083       .  S
C2801      F2814   1.385       .  S
C2801      F2815   1.382       .  S
C2801      F2816   1.383       .  S
C2803      F2811   1.385       .  S
C2803      F2812   1.383       .  S
C2803      F2813   1.384       .  S
C2817      C2818   1.402       .  A
C2817      C2822   1.407       .  A
C2817      H2827   1.083       .  S
C2818      C2823   1.478       .  S
C2818      C2819   1.417       .  A
C2819      C2820   1.403       .  A
C2819      C2824   1.521       .  S
C2820      C2821   1.399       .  A
C2820      H2825   1.084       .  S
C2821      C2822   1.414       .  A
C2822      C2826   1.517       .  S
C2823      C2828   1.416       .  A
C2823      C2832   1.402       .  A
C2824      F2840   1.382       .  S
C2824      F2841   1.383       .  S
C2824      F2842   1.384       .  S
C2826      F2837   1.385       .  S
C2826      F2838   1.383       .  S
C2826      F2839   1.383       .  S
C2828      C2829   1.399       .  A
C2828      C2833   1.520       .  S
C2829      C2830   1.401       .  A
C2829      H2834   1.085       .  S
C2830      C2831   1.418       .  A
C2831      C2832   1.409       .  A
C2831      C2835   1.518       .  S
C2832      H2836   1.084       .  S
C2833      F2846   1.385       .  S
C2833      F2847   1.382       .  S
C2833      F2848   1.382       .  S
C2835      F2843   1.384       .  S
C2835      F2844   1.383       .  S
C2835      F2845   1.382       .  S
C2849      C2850   1.405       .  A
C2849      C2854   1.414       .  A
C2849      H2859   1.083       .  S
C2850      C2855   1.490       .  S
C2850      C2851   1.416       .  A
C2851      C2852   1.405       .  A
C2851      C2856   1.520       .  S
C2852      C2853   1.404       .  A
C2852      H2857   1.083       .  S
C2853      C2854   1.418       .  A
C2854      C2858   1.517       .  S
C2855      C2860   1.416       .  A
C2855      C2864   1.404       .  A
C2856      F2872   1.382       .  S
C2856      F2873   1.382       .  S
C2856      F2874   1.385       .  S
C2858      F2869   1.383       .  S
C2858      F2870   1.384       .  S
C2858      F2871   1.383       .  S
C2860      C2861   1.407       .  A
C2860      C2865   1.520       .  S
C2861      C2862   1.404       .  A
C2861      H2866   1.083       .  S
C2862      C2863   1.418       .  A
C2863      C2864   1.413       .  A
C2863      C2867   1.517       .  S
C2864      H2868   1.083       .  S
C2865      F2878   1.384       .  S
C2865      F2879   1.382       .  S
C2865      F2880   1.383       .  S
C2867      F2875   1.384       .  S
C2867      F2876   1.383       .  S
C2867      F2877   1.384       .  S
C2881      C2882   1.401       .  A
C2881      C2886   1.403       .  A
C2881      H2891   1.083       .  S
C2882      C2887   1.473       .  S
C2882      C2883   1.413       .  A
C2883      C2884   1.403       .  A
C2883      C2888   1.518       .  S
C2884      C2885   1.401       .  A
C2884      H2889   1.083       .  S
C2885      C2886   1.412       .  A
C2886      C2890   1.517       .  S
C2887      C2892   1.415       .  A
C2887      C2896   1.399       .  A
C2888      F2904   1.383       .  S
C2888      F2905   1.382       .  S
C2888      F2906   1.384       .  S
C2890      F2901   1.381       .  S
C2890      F2902   1.385       .  S
C2890      F2903   1.383       .  S
C2892      C2893   1.399       .  A
C2892      C2897   1.523       .  S
C2893      C2894   1.404       .  A
C2893      H2898   1.083       .  S
C2894      C2895   1.418       .  A
C2895      C2896   1.408       .  A
C2895      C2899   1.515       .  S
C2896      H2900   1.083       .  S
C2897      F2910   1.385       .  S
C2897      F2911   1.383       .  S
C2897      F2912   1.381       .  S
C2899      F2907   1.384       .  S
C2899      F2908   1.384       .  S
C2899      F2909   1.382       .  S
C2913      C2914   1.403       .  A
C2913      C2918   1.414       .  A
C2913      H2923   1.083       .  S
C2914      C2919   1.488       .  S
C2914      C2915   1.416       .  A
C2915      C2916   1.405       .  A
C2915      C2920   1.522       .  S
C2916      C2917   1.407       .  A
C2916      H2921   1.083       .  S
C2917      C2918   1.423       .  A
C2918      C2922   1.518       .  S
C2919      C2924   1.411       .  A
C2919      C2928   1.395       .  A
C2920      F2936   1.382       .  S
C2920      F2937   1.381       .  S
C2920      F2938   1.385       .  S
C2922      F2933   1.383       .  S
C2922      F2934   1.385       .  S
C2922      F2935   1.383       .  S
C2924      C2925   1.413       .  A
C2924      C2929   1.516       .  S
C2925      C2926   1.412       .  A
C2925      H2930   1.082       .  S
C2926      C2927   1.435       .  A
C2927      C2928   1.404       .  A
C2927      C2931   1.525       .  S
C2928      H2932   1.084       .  S
C2929      F2942   1.384       .  S
C2929      F2943   1.383       .  S
C2929      F2944   1.382       .  S
C2931      F2939   1.386       .  S
C2931      F2940   1.382       .  S
C2931      F2941   1.384       .  S
C2945      C2946   1.398       .  A
C2945      C2950   1.403       .  A
C2945      H2955   1.083       .  S
C2946      C2951   1.488       .  S
C2946      C2947   1.418       .  A
C2947      C2948   1.413       .  A
C2947      C2952   1.516       .  S
C2948      C2949   1.404       .  A
C2948      H2953   1.082       .  S
C2949      C2950   1.421       .  A
C2950      C2954   1.521       .  S
C2951      C2956   1.417       .  A
C2951      C2960   1.397       .  A
C2952      F2968   1.383       .  S
C2952      F2969   1.382       .  S
C2952      F2970   1.385       .  S
C2954      F2965   1.382       .  S
C2954      F2966   1.384       .  S
C2954      F2967   1.383       .  S
C2956      C2957   1.411       .  A
C2956      C2961   1.519       .  S
C2957      C2958   1.407       .  A
C2957      H2962   1.083       .  S
C2958      C2959   1.429       .  A
C2959      C2960   1.408       .  A
C2959      C2963   1.522       .  S
C2960      H2964   1.083       .  S
C2961      F2974   1.384       .  S
C2961      F2975   1.383       .  S
C2961      F2976   1.382       .  S
C2963      F2971   1.385       .  S
C2963      F2972   1.383       .  S
C2963      F2973   1.382       .  S
C2977      C2978   1.403       .  A
C2977      C2982   1.413       .  A
C2977      H2987   1.083       .  S
C2978      C2983   1.483       .  S
C2978      C2979   1.415       .  A
C2979      C2980   1.399       .  A
C2979      C2984   1.523       .  S
C2980      C2981   1.406       .  A
C2980      H2985   1.083       .  S
C2981      C2982   1.423       .  A
C2982      C2986   1.518       .  S
C2983      C2988   1.415       .  A
C2983      C2992   1.402       .  A
C2984      F3000   1.382       .  S
C2984      F3001   1.383       .  S
C2984      F3002   1.385       .  S
C2986      F2997   1.383       .  S
C2986      F2998   1.385       .  S
C2986      F2999   1.383       .  S
C2988      C2989   1.405       .  A
C2988      C2993   1.520       .  S
C2989      C2990   1.405       .  A
C2989      H2994   1.083       .  S
C2990      C2991   1.419       .  A
C2991      C2992   1.408       .  A
C2991      C2995   1.519       .  S
C2992      H2996   1.083       .  S
C2993      F3006   1.384       .  S
C2993      F3007   1.383       .  S
C2993      F3008   1.383       .  S
C2995      F3003   1.385       .  S
C2995      F3004   1.382       .  S
C2995      F3005   1.384       .  S
C3009      C3010   1.403       .  A
C3009      C3014   1.409       .  A
C3009      H3019   1.083       .  S
C3010      C3015   1.486       .  S
C3010      C3011   1.416       .  A
C3011      C3012   1.406       .  A
C3011      C3016   1.520       .  S
C3012      C3013   1.403       .  A
C3012      H3017   1.083       .  S
C3013      C3014   1.418       .  A
C3014      C3018   1.518       .  S
C3015      C3020   1.414       .  A
C3015      C3024   1.403       .  A
C3016      F3032   1.382       .  S
C3016      F3033   1.383       .  S
C3016      F3034   1.384       .  S
C3018      F3029   1.382       .  S
C3018      F3030   1.384       .  S
C3018      F3031   1.384       .  S
C3020      C3021   1.403       .  A
C3020      C3025   1.522       .  S
C3021      C3022   1.408       .  A
C3021      H3026   1.082       .  S
C3022      C3023   1.422       .  A
C3023      C3024   1.412       .  A
C3023      C3027   1.518       .  S
C3024      H3028   1.083       .  S
C3025      F3038   1.385       .  S
C3025      F3039   1.382       .  S
C3025      F3040   1.383       .  S
C3027      F3035   1.385       .  S
C3027      F3036   1.384       .  S
C3027      F3037   1.382       .  S
C3041      C3042   1.404       .  A
C3041      C3046   1.411       .  A
C3041      H3051   1.083       .  S
C3042      C3047   1.490   1_556  S
C3042      C3043   1.416       .  A
C3043      C3044   1.407       .  A
C3043      C3048   1.521       .  S
C3044      C3045   1.406       .  A
C3044      H3049   1.083       .  S
C3045      C3046   1.418       .  A
C3046      C3050   1.517       .  S
C3047      C3052   1.416       .  A
C3047      C3056   1.403       .  A
C3048      F3064   1.382       .  S
C3048      F3065   1.382       .  S
C3048      F3066   1.385       .  S
C3050      F3061   1.384       .  S
C3050      F3062   1.382       .  S
C3050      F3063   1.384       .  S
C3052      C3053   1.408       .  A
C3052      C3057   1.519       .  S
C3053      C3054   1.404       .  A
C3053      H3058   1.082       .  S
C3054      C3055   1.422       .  A
C3055      C3056   1.411       .  A
C3055      C3059   1.520       .  S
C3056      H3060   1.083       .  S
C3057      F3070   1.385       .  S
C3057      F3071   1.382   1_554  S
C3057      F3072   1.382   1_554  S
C3059      F3067   1.382       .  S
C3059      F3068   1.384       .  S
C3059      F3069   1.385       .  S
C3073      C3074   1.404       .  A
C3073      C3078   1.411       .  A
C3073      H3083   1.083       .  S
C3074      C3079   1.484       .  S
C3074      C3075   1.416       .  A
C3075      C3076   1.403       .  A
C3075      C3080   1.520       .  S
C3076      C3077   1.402       .  A
C3076      H3081   1.084       .  S
C3077      C3078   1.416       .  A
C3078      C3082   1.517       .  S
C3079      C3084   1.417       .  A
C3079      C3088   1.404       .  A
C3080      F3096   1.382       .  S
C3080      F3097   1.383       .  S
C3080      F3098   1.385       .  S
C3082      F3093   1.383       .  S
C3082      F3094   1.384       .  S
C3082      F3095   1.383       .  S
C3084      C3085   1.404       .  A
C3084      C3089   1.520       .  S
C3085      C3086   1.400       .  A
C3085      H3090   1.084       .  S
C3086      C3087   1.415       .  A
C3087      C3088   1.410       .  A
C3087      C3091   1.519       .  S
C3088      H3092   1.083       .  S
C3089      F3102   1.384       .  S
C3089      F3103   1.383       .  S
C3089      F3104   1.382       .  S
C3091      F3099   1.384       .  S
C3091      F3100   1.383       .  S
C3091      F3101   1.382       .  S
C3105      C3106   1.401       .  A
C3105      C3110   1.406       .  A
C3105      H3115   1.084       .  S
C3106      C3111   1.485       .  S
C3106      C3107   1.415       .  A
C3107      C3108   1.407       .  A
C3107      C3112   1.518       .  S
C3108      C3109   1.407       .  A
C3108      H3113   1.082       .  S
C3109      C3110   1.422       .  A
C3110      C3114   1.518       .  S
C3111      C3116   1.415       .  A
C3111      C3120   1.399       .  A
C3112      F3128   1.382       .  S
C3112      F3129   1.383       .  S
C3112      F3130   1.384       .  S
C3114      F3125   1.385       .  S
C3114      F3126   1.382       .  S
C3114      F3127   1.382       .  S
C3116      C3117   1.408       .  A
C3116      C3121   1.517       .  S
C3117      C3118   1.410       .  A
C3117      H3122   1.084       .  S
C3118      C3119   1.429       .  A
C3119      C3120   1.404       .  A
C3119      C3123   1.523       .  S
C3120      H3124   1.084       .  S
C3121      F3134   1.384       .  S
C3121      F3135   1.383       .  S
C3121      F3136   1.382       .  S
C3123      F3131   1.385       .  S
C3123      F3132   1.382       .  S
C3123      F3133   1.380       .  S
C3137      C3138   1.402       .  A
C3137      C3142   1.408       .  A
C3137      H3147   1.084       .  S
C3138      C3143   1.488       .  S
C3138      C3139   1.418       .  A
C3139      C3140   1.407       .  A
C3139      C3144   1.517       .  S
C3140      C3141   1.405       .  A
C3140      H3145   1.084       .  S
C3141      C3142   1.423       .  A
C3142      C3146   1.520       .  S
C3143      C3148   1.415       .  A
C3143      C3152   1.399       .  A
C3144      F3160   1.383       .  S
C3144      F3161   1.382       .  S
C3144      F3162   1.384       .  S
C3146      F3157   1.384       .  S
C3146      F3158   1.385       .  S
C3146      F3159   1.383       .  S
C3148      C3149   1.412       .  A
C3148      C3153   1.516       .  S
C3149      C3150   1.407       .  A
C3149      H3154   1.083       .  S
C3150      C3151   1.424       .  A
C3151      C3152   1.405       .  A
C3151      C3155   1.522       .  S
C3152      H3156   1.084       .  S
C3153      F3166   1.384       .  S
C3153      F3167   1.382       .  S
C3153      F3168   1.383       .  S
C3155      F3163   1.382       .  S
C3155      F3164   1.384       .  S
C3155      F3165   1.385       .  S
C3169      C3170   1.399       .  A
C3169      C3174   1.404       .  A
C3169      H3179   1.083       .  S
C3170      C3175   1.481       .  S
C3170      C3171   1.413       .  A
C3171      C3172   1.404       .  A
C3171      C3176   1.517       .  S
C3172      C3173   1.410       .  A
C3172      H3177   1.083       .  S
C3173      C3174   1.431       .  A
C3174      C3178   1.525       .  S
C3175      C3180   1.417       .  A
C3175      C3184   1.401       .  A
C3176      F3192   1.383       .  S
C3176      F3193   1.382       .  S
C3176      F3194   1.384       .  S
C3178      F3189   1.383       .  S
C3178      F3190   1.385       .  S
C3178      F3191   1.384       .  S
C3180      C3181   1.405       .  A
C3180      C3185   1.517       .  S
C3181      C3182   1.403       .  A
C3181      H3186   1.085       .  S
C3182      C3183   1.417       .  A
C3183      C3184   1.402       .  A
C3183      C3187   1.515       .  S
C3184      H3188   1.084       .  S
C3185      F3198   1.383       .  S
C3185      F3199   1.383       .  S
C3185      F3200   1.383       .  S
C3187      F3195   1.383       .  S
C3187      F3196   1.384       .  S
C3187      F3197   1.384       .  S
C3201      C3202   1.404       .  A
C3201      C3206   1.406       .  A
C3201      H3211   1.083       .  S
C3202      C3207   1.487       .  S
C3202      C3203   1.419       .  A
C3203      C3204   1.409       .  A
C3203      C3208   1.520       .  S
C3204      C3205   1.401       .  A
C3204      H3209   1.084       .  S
C3205      C3206   1.414       .  A
C3206      C3210   1.516       .  S
C3207      C3212   1.416       .  A
C3207      C3216   1.399       .  A
C3208      F3224   1.381       .  S
C3208      F3225   1.382       .  S
C3208      F3226   1.384       .  S
C3210      F3221   1.385       .  S
C3210      F3222   1.382       .  S
C3210      F3223   1.384       .  S
C3212      C3213   1.413       .  A
C3212      C3217   1.518       .  S
C3213      C3214   1.408       .  A
C3213      H3218   1.083       .  S
C3214      C3215   1.424       .  A
C3215      C3216   1.402       .  A
C3215      C3219   1.522       .  S
C3216      H3220   1.084       .  S
C3217      F3230   1.384       .  S
C3217      F3231   1.382       .  S
C3217      F3232   1.382       .  S
C3219      F3227   1.385       .  S
C3219      F3228   1.383       .  S
C3219      F3229   1.383       .  S
C3233      C3234   1.400       .  A
C3233      C3238   1.406       .  A
C3233      H3243   1.083       .  S
C3234      C3239   1.479       .  S
C3234      C3235   1.416       .  A
C3235      C3236   1.404       .  A
C3235      C3240   1.521       .  S
C3236      C3237   1.403       .  A
C3236      H3241   1.081       .  S
C3237      C3238   1.420       .  A
C3238      C3242   1.517       .  S
C3239      C3244   1.410       .  A
C3239      C3248   1.398       .  A
C3240      F3256   1.382       .  S
C3240      F3257   1.381       .  S
C3240      F3258   1.384       .  S
C3242      F3253   1.384       .  S
C3242      F3254   1.385       .  S
C3242      F3255   1.382       .  S
C3244      C3245   1.407       .  A
C3244      C3249   1.517       .  S
C3245      C3246   1.408       .  A
C3245      H3250   1.083       .  S
C3246      C3247   1.426       .  A
C3247      C3248   1.404       .  A
C3247      C3251   1.524       .  S
C3248      H3252   1.083       .  S
C3249      F3262   1.384       .  S
C3249      F3263   1.383       .  S
C3249      F3264   1.381       .  S
C3251      F3259   1.383       .  S
C3251      F3260   1.382       .  S
C3251      F3261   1.385       .  S
C3265      C3266   1.399       .  A
C3265      C3270   1.402       .  A
C3265      H3275   1.084       .  S
C3266      C3271   1.487       .  S
C3266      C3267   1.416       .  A
C3267      C3268   1.413       .  A
C3267      C3272   1.518       .  S
C3268      C3269   1.407       .  A
C3268      H3273   1.083       .  S
C3269      C3270   1.423       .  A
C3270      C3274   1.522       .  S
C3271      C3276   1.418       .  A
C3271      C3280   1.401       .  A
C3272      F3288   1.382       .  S
C3272      F3289   1.382       .  S
C3272      F3290   1.384       .  S
C3274      F3285   1.385       .  S
C3274      F3286   1.383       .  S
C3274      F3287   1.383       .  S
C3276      C3277   1.410       .  A
C3276      C3281   1.519       .  S
C3277      C3278   1.404       .  A
C3277      H3282   1.083       .  S
C3278      C3279   1.420       .  A
C3279      C3280   1.405       .  A
C3279      C3283   1.520       .  S
C3280      H3284   1.084       .  S
C3281      F3294   1.384       .  S
C3281      F3295   1.382       .  S
C3281      F3296   1.382       .  S
C3283      F3291   1.385       .  S
C3283      F3292   1.382       .  S
C3283      F3293   1.383       .  S
C3297      C3298   1.401       .  A
C3297      C3302   1.406       .  A
C3297      H3307   1.085       .  S
C3298      C3303   1.486       .  S
C3298      C3299   1.416       .  A
C3299      C3300   1.408       .  A
C3299      C3304   1.519       .  S
C3300      C3301   1.404       .  A
C3300      H3305   1.083       .  S
C3301      C3302   1.420       .  A
C3302      C3306   1.517       .  S
C3303      C3308   1.414       .  A
C3303      C3312   1.403       .  A
C3304      F3320   1.382       .  S
C3304      F3321   1.383       .  S
C3304      F3322   1.385       .  S
C3306      F3317   1.382       .  S
C3306      F3318   1.384       .  S
C3306      F3319   1.382       .  S
C3308      C3309   1.403       .  A
C3308      C3313   1.521       .  S
C3309      C3310   1.407       .  A
C3309      H3314   1.083       .  S
C3310      C3311   1.422       .  A
C3311      C3312   1.412       .  A
C3311      C3315   1.518       .  S
C3312      H3316   1.083       .  S
C3313      F3326   1.384       .  S
C3313      F3327   1.382       .  S
C3313      F3328   1.382       .  S
C3315      F3323   1.385       .  S
C3315      F3324   1.383       .  S
C3315      F3325   1.382       .  S
C3329      C3330   1.402       .  A
C3329      C3334   1.407       .  A
C3329      H3339   1.083       .  S
C3330      C3335   1.481   1_556  S
C3330      C3331   1.416       .  A
C3331      C3332   1.404       .  A
C3331      C3336   1.520       .  S
C3332      C3333   1.403       .  A
C3332      H3337   1.083       .  S
C3333      C3334   1.417       .  A
C3334      C3338   1.519       .  S
C3335      C3340   1.413       .  A
C3335      C3344   1.399       .  A
C3336      F3352   1.382       .  S
C3336      F3353   1.382   1_556  S
C3336      F3354   1.385       .  S
C3338      F3349   1.384       .  S
C3338      F3350   1.382       .  S
C3338      F3351   1.384       .  S
C3340      C3341   1.406       .  A
C3340      C3345   1.519       .  S
C3341      C3342   1.408       .  A
C3341      H3346   1.083       .  S
C3342      C3343   1.426       .  A
C3343      C3344   1.406       .  A
C3343      C3347   1.522       .  S
C3344      H3348   1.083       .  S
C3345      F3358   1.385       .  S
C3345      F3359   1.382   1_554  S
C3345      F3360   1.382   1_554  S
C3347      F3355   1.383       .  S
C3347      F3356   1.383       .  S
C3347      F3357   1.385       .  S
C3361      C3362   1.404       .  A
C3361      C3366   1.403       .  A
C3361      H3371   1.083       .  S
C3362      C3367   1.482       .  S
C3362      C3363   1.418       .  A
C3363      C3364   1.405       .  A
C3363      C3368   1.517       .  S
C3364      C3365   1.401       .  A
C3364      H3369   1.083       .  S
C3365      C3366   1.412       .  A
C3366      C3370   1.517       .  S
C3367      C3372   1.417       .  A
C3367      C3376   1.403       .  A
C3368      F3384   1.383       .  S
C3368      F3385   1.383       .  S
C3368      F3386   1.384       .  S
C3370      F3381   1.385       .  S
C3370      F3382   1.379       .  S
C3370      F3383   1.383       .  S
C3372      C3373   1.407       .  A
C3372      C3377   1.518       .  S
C3373      C3374   1.401       .  A
C3373      H3378   1.083       .  S
C3374      C3375   1.411       .  A
C3375      C3376   1.402       .  A
C3375      C3379   1.517       .  S
C3376      H3380   1.083       .  S
C3377      F3390   1.385       .  S
C3377      F3391   1.381       .  S
C3377      F3392   1.383       .  S
C3379      F3387   1.382       .  S
C3379      F3388   1.383       .  S
C3379      F3389   1.384       .  S
C3393      C3394   1.400       .  A
C3393      C3398   1.403       .  A
C3393      H3403   1.084       .  S
C3394      C3399   1.486       .  S
C3394      C3395   1.418       .  A
C3395      C3396   1.409       .  A
C3395      C3400   1.516       .  S
C3396      C3397   1.406       .  A
C3396      H3401   1.084       .  S
C3397      C3398   1.424       .  A
C3398      C3402   1.519       .  S
C3399      C3404   1.414       .  A
C3399      C3408   1.400       .  A
C3400      F3416   1.383       .  S
C3400      F3417   1.382       .  S
C3400      F3418   1.384       .  S
C3402      F3413   1.385       .  S
C3402      F3414   1.383       .  S
C3402      F3415   1.380       .  S
C3404      C3405   1.409       .  A
C3404      C3409   1.518       .  S
C3405      C3406   1.409       .  A
C3405      H3410   1.083       .  S
C3406      C3407   1.425       .  A
C3407      C3408   1.406       .  A
C3407      C3411   1.521       .  S
C3408      H3412   1.084       .  S
C3409      F3422   1.385       .  S
C3409      F3423   1.382       .  S
C3409      F3424   1.383       .  S
C3411      F3419   1.385       .  S
C3411      F3420   1.383       .  S
C3411      F3421   1.383       .  S
C3425      C3426   1.404       .  A
C3425      C3430   1.412       .  A
C3425      H3435   1.083       .  S
C3426      C3431   1.490       .  S
C3426      C3427   1.415       .  A
C3427      C3428   1.406       .  A
C3427      C3432   1.520       .  S
C3428      C3429   1.406       .  A
C3428      H3433   1.084       .  S
C3429      C3430   1.418       .  A
C3430      C3434   1.517       .  S
C3431      C3436   1.415       .  A
C3431      C3440   1.403       .  A
C3432      F3448   1.382       .  S
C3432      F3449   1.383       .  S
C3432      F3450   1.385       .  S
C3434      F3445   1.383       .  S
C3434      F3446   1.385       .  S
C3434      F3447   1.383       .  S
C3436      C3437   1.404       .  A
C3436      C3441   1.522       .  S
C3437      C3438   1.410       .  A
C3437      H3442   1.082       .  S
C3438      C3439   1.424       .  A
C3439      C3440   1.415       .  A
C3439      C3443   1.518       .  S
C3440      H3444   1.083       .  S
C3441      F3454   1.385       .  S
C3441      F3455   1.382       .  S
C3441      F3456   1.382       .  S
C3443      F3451   1.385       .  S
C3443      F3452   1.383       .  S
C3443      F3453   1.383       .  S
C3457      C3458   1.398       .  A
C3457      C3462   1.401       .  A
C3457      H3467   1.084       .  S
C3458      C3463   1.487       .  S
C3458      C3459   1.416       .  A
C3459      C3460   1.415       .  A
C3459      C3464   1.517       .  S
C3460      C3461   1.409       .  A
C3460      H3465   1.083       .  S
C3461      C3462   1.427       .  A
C3462      C3466   1.524       .  S
C3463      C3468   1.418       .  A
C3463      C3472   1.404       .  A
C3464      F3480   1.382       .  S
C3464      F3481   1.381       .  S
C3464      F3482   1.384       .  S
C3466      F3477   1.385       .  S
C3466      F3478   1.383       .  S
C3466      F3479   1.382       .  S
C3468      C3469   1.408       .  A
C3468      C3473   1.519       .  S
C3469      C3470   1.402       .  A
C3469      H3474   1.081       .  S
C3470      C3471   1.415       .  A
C3471      C3472   1.408       .  A
C3471      C3475   1.518       .  S
C3472      H3476   1.083       .  S
C3473      F3486   1.384       .  S
C3473      F3487   1.382       .  S
C3473      F3488   1.381       .  S
C3475      F3483   1.383       .  S
C3475      F3484   1.383       .  S
C3475      F3485   1.385       .  S
C3489      C3490   1.403       .  A
C3489      C3494   1.414       .  A
C3489      H3499   1.083       .  S
C3490      C3495   1.490       .  S
C3490      C3491   1.414       .  A
C3491      C3492   1.403       .  A
C3491      C3496   1.522       .  S
C3492      C3493   1.409       .  A
C3492      H3497   1.082       .  S
C3493      C3494   1.427       .  A
C3494      C3498   1.519       .  S
C3495      C3500   1.414       .  A
C3495      C3504   1.402       .  A
C3496      F3512   1.382       .  S
C3496      F3513   1.383       .  S
C3496      F3514   1.384       .  S
C3498      F3509   1.383       .  S
C3498      F3510   1.385       .  S
C3498      F3511   1.384       .  S
C3500      C3501   1.405       .  A
C3500      C3505   1.521       .  S
C3501      C3502   1.411       .  A
C3501      H3506   1.082       .  S
C3502      C3503   1.426       .  A
C3503      C3504   1.413       .  A
C3503      C3507   1.519       .  S
C3504      H3508   1.083       .  S
C3505      F3518   1.385       .  S
C3505      F3519   1.382       .  S
C3505      F3520   1.383       .  S
C3507      F3515   1.385       .  S
C3507      F3516   1.383       .  S
C3507      F3517   1.384       .  S
C3521      C3522   1.404       .  A
C3521      C3526   1.412       .  A
C3521      H3531   1.083       .  S
C3522      C3527   1.488       .  S
C3522      C3523   1.417       .  A
C3523      C3524   1.405       .  A
C3523      C3528   1.521       .  S
C3524      C3525   1.403       .  A
C3524      H3529   1.083       .  S
C3525      C3526   1.418       .  A
C3526      C3530   1.518       .  S
C3527      C3532   1.412       .  A
C3527      C3536   1.400       .  A
C3528      F3544   1.382       .  S
C3528      F3545   1.382       .  S
C3528      F3546   1.385       .  S
C3530      F3541   1.385       .  S
C3530      F3542   1.382       .  S
C3530      F3543   1.382       .  S
C3532      C3533   1.408       .  A
C3532      C3537   1.520       .  S
C3533      C3534   1.412       .  A
C3533      H3538   1.082       .  S
C3534      C3535   1.427       .  A
C3535      C3536   1.411       .  A
C3535      C3539   1.520       .  S
C3536      H3540   1.083       .  S
C3537      F3550   1.385       .  S
C3537      F3551   1.382       .  S
C3537      F3552   1.383       .  S
C3539      F3547   1.385       .  S
C3539      F3548   1.383       .  S
C3539      F3549   1.383       .  S
C3553      C3554   1.402       .  A
C3553      C3558   1.408       .  A
C3553      H3563   1.083       .  S
C3554      C3559   1.485       .  S
C3554      C3555   1.415       .  A
C3555      C3556   1.405       .  A
C3555      C3560   1.519       .  S
C3556      C3557   1.405       .  A
C3556      H3561   1.083       .  S
C3557      C3558   1.419       .  A
C3558      C3562   1.519       .  S
C3559      C3564   1.416       .  A
C3559      C3568   1.403       .  A
C3560      F3576   1.382       .  S
C3560      F3577   1.383       .  S
C3560      F3578   1.385       .  S
C3562      F3573   1.381       .  S
C3562      F3574   1.385       .  S
C3562      F3575   1.381       .  S
C3564      C3565   1.403       .  A
C3564      C3569   1.522       .  S
C3565      C3566   1.404       .  A
C3565      H3570   1.083       .  S
C3566      C3567   1.420       .  A
C3567      C3568   1.412       .  A
C3567      C3571   1.518       .  S
C3568      H3572   1.083       .  S
C3569      F3582   1.384       .  S
C3569      F3583   1.382       .  S
C3569      F3584   1.383       .  S
C3571      F3579   1.385       .  S
C3571      F3580   1.383       .  S
C3571      F3581   1.382       .  S
C3585      C3586   1.404       .  A
C3585      C3590   1.409       .  A
C3585      H3595   1.083       .  S
C3586      C3591   1.485       .  S
C3586      C3587   1.416       .  A
C3587      C3588   1.404       .  A
C3587      C3592   1.520       .  S
C3588      C3589   1.402       .  A
C3588      H3593   1.084       .  S
C3589      C3590   1.414       .  A
C3590      C3594   1.517       .  S
C3591      C3596   1.414       .  A
C3591      C3600   1.403       .  A
C3592      F3608   1.382       .  S
C3592      F3609   1.383       .  S
C3592      F3610   1.385       .  S
C3594      F3605   1.384       .  S
C3594      F3606   1.385       .  S
C3594      F3607   1.382       .  S
C3596      C3597   1.402       .  A
C3596      C3601   1.522       .  S
C3597      C3598   1.406       .  A
C3597      H3602   1.083       .  S
C3598      C3599   1.423       .  A
C3599      C3600   1.413       .  A
C3599      C3603   1.519       .  S
C3600      H3604   1.083       .  S
C3601      F3614   1.384       .  S
C3601      F3615   1.382       .  S
C3601      F3616   1.383       .  S
C3603      F3611   1.385       .  S
C3603      F3612   1.383       .  S
C3603      F3613   1.384       .  S
C3617      C3618   1.398       .  A
C3617      C3622   1.403       .  A
C3617      H3627   1.083       .  S
C3618      C3623   1.480       .  S
C3618      C3619   1.413       .  A
C3619      C3620   1.407       .  A
C3619      C3624   1.519       .  S
C3620      C3621   1.410       .  A
C3620      H3625   1.083       .  S
C3621      C3622   1.427       .  A
C3622      C3626   1.524       .  S
C3623      C3628   1.417       .  A
C3623      C3632   1.402       .  A
C3624      F3640   1.382       .  S
C3624      F3641   1.382       .  S
C3624      F3642   1.385       .  S
C3626      F3637   1.382       .  S
C3626      F3638   1.385       .  S
C3626      F3639   1.382       .  S
C3628      C3629   1.407       .  A
C3628      C3633   1.519       .  S
C3629      C3630   1.402       .  A
C3629      H3634   1.083       .  S
C3630      C3631   1.415       .  A
C3631      C3632   1.403       .  A
C3631      C3635   1.520       .  S
C3632      H3636   1.083       .  S
C3633      F3646   1.384       .  S
C3633      F3647   1.382       .  S
C3633      F3648   1.382       .  S
C3635      F3643   1.383       .  S
C3635      F3644   1.382       .  S
C3635      F3645   1.385       .  S
C3649      C3650   1.402       .  A
C3649      C3654   1.410       .  A
C3649      H3659   1.083       .  S
C3650      C3655   1.484       .  S
C3650      C3651   1.416       .  A
C3651      C3652   1.404       .  A
C3651      C3656   1.522       .  S
C3652      C3653   1.406       .  A
C3652      H3657   1.083       .  S
C3653      C3654   1.418       .  A
C3654      C3658   1.517       .  S
C3655      C3660   1.416       .  A
C3655      C3664   1.401       .  A
C3656      F3672   1.382       .  S
C3656      F3673   1.383       .  S
C3656      F3674   1.385       .  S
C3658      F3669   1.382       .  S
C3658      F3670   1.384       .  S
C3658      F3671   1.384       .  S
C3660      C3661   1.406       .  A
C3660      C3665   1.519       .  S
C3661      C3662   1.404       .  A
C3661      H3666   1.083       .  S
C3662      C3663   1.421       .  A
C3663      C3664   1.407       .  A
C3663      C3667   1.520       .  S
C3664      H3668   1.083       .  S
C3665      F3678   1.385       .  S
C3665      F3679   1.382       .  S
C3665      F3680   1.383       .  S
C3667      F3675   1.384       .  S
C3667      F3676   1.382       .  S
C3667      F3677   1.382       .  S
C3681      C3682   1.400       .  A
C3681      C3686   1.407       .  A
C3681      H3691   1.083       .  S
C3682      C3687   1.488   1_556  S
C3682      C3683   1.416       .  A
C3683      C3684   1.411       .  A
C3683      C3688   1.519       .  S
C3684      C3685   1.407       .  A
C3684      H3689   1.083       .  S
C3685      C3686   1.423       .  A
C3686      C3690   1.519       .  S
C3687      C3692   1.417       .  A
C3687      C3696   1.403       .  A
C3688      F3704   1.382   1_556  S
C3688      F3705   1.382   1_556  S
C3688      F3706   1.384       .  S
C3690      F3701   1.382       .  S
C3690      F3702   1.385       .  S
C3690      F3703   1.381       .  S
C3692      C3693   1.408       .  A
C3692      C3697   1.520       .  S
C3693      C3694   1.404       .  A
C3693      H3698   1.083       .  S
C3694      C3695   1.417       .  A
C3695      C3696   1.409       .  A
C3695      C3699   1.519       .  S
C3696      H3700   1.083       .  S
C3697      F3710   1.385       .  S
C3697      F3711   1.382       .  S
C3697      F3712   1.382       .  S
C3699      F3707   1.384       .  S
C3699      F3708   1.384       .  S
C3699      F3709   1.382       .  S
C3713      C3714   1.405       .  A
C3713      C3718   1.405       .  A
C3713      H3723   1.084       .  S
C3714      C3719   1.487       .  S
C3714      C3715   1.419       .  A
C3715      C3716   1.406       .  A
C3715      C3720   1.516       .  S
C3716      C3717   1.403       .  A
C3716      H3721   1.084       .  S
C3717      C3718   1.416       .  A
C3718      C3722   1.516       .  S
C3719      C3724   1.413       .  A
C3719      C3728   1.399       .  A
C3720      F3736   1.383       .  S
C3720      F3737   1.382       .  S
C3720      F3738   1.383       .  S
C3722      F3733   1.385       .  S
C3722      F3734   1.382       .  S
C3722      F3735   1.384       .  S
C3724      C3725   1.411       .  A
C3724      C3729   1.517       .  S
C3725      C3726   1.411       .  A
C3725      H3730   1.082       .  S
C3726      C3727   1.428       .  A
C3727      C3728   1.405       .  A
C3727      C3731   1.522       .  S
C3728      H3732   1.084       .  S
C3729      F3742   1.384       .  S
C3729      F3743   1.382       .  S
C3729      F3744   1.383       .  S
C3731      F3739   1.383       .  S
C3731      F3740   1.384       .  S
C3731      F3741   1.385       .  S
C3745      C3746   1.400       .  A
C3745      C3750   1.399       .  A
C3745      H3755   1.084       .  S
C3746      C3751   1.476       .  S
C3746      C3747   1.416       .  A
C3747      C3748   1.407       .  A
C3747      C3752   1.516       .  S
C3748      C3749   1.405       .  A
C3748      H3753   1.085       .  S
C3749      C3750   1.419       .  A
C3750      C3754   1.520       .  S
C3751      C3756   1.414       .  A
C3751      C3760   1.401       .  A
C3752      F3768   1.383       .  S
C3752      F3769   1.382       .  S
C3752      F3770   1.384       .  S
C3754      F3765   1.385       .  S
C3754      F3766   1.382       .  S
C3754      F3767   1.382       .  S
C3756      C3757   1.406       .  A
C3756      C3761   1.517       .  S
C3757      C3758   1.403       .  A
C3757      H3762   1.084       .  S
C3758      C3759   1.416       .  A
C3759      C3760   1.401       .  A
C3759      C3763   1.518       .  S
C3760      H3764   1.085       .  S
C3761      F3774   1.385       .  S
C3761      F3775   1.382       .  S
C3761      F3776   1.383       .  S
C3763      F3771   1.383       .  S
C3763      F3772   1.381       .  S
C3763      F3773   1.383       .  S
