geometry optimzed in LAMMPS
_audit_creation_date              2020-12-01 
_audit_creation_method            'lammps2cif' 
_symmetry_space_group_name_H-M    'P1' 
_symmetry_Int_Tables_number       1 
_symmetry_cell_setting            triclinic 
loop_ 
_symmetry_equiv_pos_as_xyz 
  x,y,z 
_cell_length_a                    56.74604187 
_cell_length_b                    56.73448372264554 
_cell_length_c                    56.240028066406744 
_cell_angle_alpha                 90.35168443767094 
_cell_angle_beta                  89.72256504535719 
_cell_angle_gamma                 121.33430978139826 
loop_ 
_atom_site_label 
_atom_site_type_symbol 
_atom_site_fract_x 
_atom_site_fract_y 
_atom_site_fract_z 
_atom_site_charge 
O1          O  0.58427295  0.16789718  0.24874084    -0.85500
O2          O  0.63155937  0.17040240  0.26292562    -0.82500
C3          C  0.65333770  0.16962935  0.26265214     0.98000
O4          O  0.66357026  0.16829277  0.24301203    -0.82500
O5          O  0.62451682  0.11749289  0.22491288    -0.85200
C6          C  0.60194932  0.09874711  0.21621205     1.02500
O7          O  0.58814941  0.10495907  0.20273478    -0.78000
O8          O  0.56592857  0.12577756  0.23453671    -0.78100
C9          C  0.56616624  0.14253848  0.24958970     1.02500
O10         O  0.61411399  0.20537639  0.21122067    -0.85500
O11         O  0.66248302  0.21193144  0.22828054    -0.82500
C12         C  0.67494160  0.21333888  0.20919128     0.98000
O13         O  0.66760262  0.19204187  0.19681122    -0.82600
O14         O  0.63320567  0.14023340  0.17836562    -0.85200
C15         C  0.62063779  0.14657627  0.16372523     1.02500
O16         O  0.60201020  0.15069513  0.17108538    -0.78000
O17         O  0.57541894  0.16789474  0.20142139    -0.78100
C18         C  0.59024770  0.19394144  0.20240637     1.02400
Cr19       Cr  0.62274356  0.18688171  0.23633205     1.93700
Cr20       Cr  0.64521389  0.15485676  0.21120197     1.93200
Cr21       Cr  0.58524489  0.13878570  0.20330196     1.39100
O22         O  0.61760414  0.16007632  0.21703321    -1.23200
O23         O  0.76192523  0.24532114  0.42684829    -0.85500
O24         O  0.81534425  0.26610930  0.43994890    -0.82500
C25         C  0.84063780  0.28435801  0.43961061     0.98000
O26         O  0.84875485  0.30933002  0.44443893    -0.82500
O27         O  0.83541864  0.33389529  0.40936244    -0.85200
C28         C  0.82094648  0.33891841  0.39587551     1.02500
O29         O  0.79762273  0.33367844  0.40292144    -0.78000
O30         O  0.77166599  0.27715305  0.39986341    -0.78100
C31         C  0.76287623  0.25239030  0.40529096     1.02500
O32         O  0.75294908  0.26629807  0.47138607    -0.85500
O33         O  0.80605558  0.28464448  0.48474752    -0.82500
C34         C  0.81766446  0.30902763  0.49278693     0.98000
O35         O  0.82545453  0.32934174  0.47920064    -0.82600
O36         O  0.81428830  0.35632828  0.44530809    -0.85200
C37         C  0.79006288  0.35112480  0.45015871     1.02500
O38         O  0.76923132  0.32755129  0.44639044    -0.78000
O39         O  0.73667958  0.27186856  0.43833601    -0.78100
C40         C  0.73301139  0.26367302  0.45950914     1.02400
Cr41       Cr  0.78497629  0.26818053  0.45472361     1.93700
Cr42       Cr  0.82847710  0.32989874  0.44431854     1.93200
Cr43       Cr  0.77073936  0.30242347  0.42326258     1.39100
O44         O  0.79500823  0.30014070  0.44098472    -1.23200
O45         O  0.73910510  0.54094140  0.42576368    -0.85500
O46         O  0.71779514  0.56364140  0.45669530    -0.82500
C47         C  0.70362810  0.56910037  0.44290790     0.98000
O48         O  0.68022519  0.55007426  0.43592345    -0.82500
O49         O  0.64169499  0.49936789  0.41839139    -0.85200
C50         C  0.65247528  0.49846668  0.39887801     1.02500
O51         O  0.67372709  0.49672067  0.39891403    -0.78000
O52         O  0.72027005  0.49803718  0.41392073    -0.78100
C53         C  0.73903993  0.52307281  0.41217401     1.02500
O54         O  0.72935118  0.49973311  0.46057390    -0.85500
O55         O  0.70417697  0.51912258  0.48990472    -0.82500
C56         C  0.68510492  0.52236279  0.49756027     0.98000
O57         O  0.67169846  0.52803728  0.48322600    -0.82600
O58         O  0.63730223  0.47565908  0.46521537    -0.85200
C59         C  0.62997160  0.45414705  0.45306401     1.02500
O60         O  0.64190999  0.45575372  0.43364325    -0.78000
O61         O  0.69014884  0.46214939  0.45181022    -0.78100
C62         C  0.71430285  0.47360005  0.46011273     1.02400
Cr63       Cr  0.72018220  0.52944252  0.45745957     1.93700
Cr64       Cr  0.65971960  0.51293996  0.45034491     1.93200
Cr65       Cr  0.68185335  0.48024534  0.42597495     1.39100
O66         O  0.68738269  0.50769429  0.44458949    -1.23200
O67         O  0.55760142  0.40435379  0.25255244    -0.85500
O68         O  0.51587780  0.35412966  0.26846617    -0.82500
C69         C  0.49302988  0.33166818  0.26896237     0.98000
O70         O  0.47942156  0.32178643  0.24996428    -0.82500
O71         O  0.46479025  0.35865035  0.23370863    -0.85200
C72         C  0.46741102  0.38024442  0.22468487     1.02500
O73         O  0.48618611  0.39352194  0.20944116    -0.78000
O74         O  0.53049891  0.41872896  0.23996406    -0.78100
C75         C  0.54830901  0.42031990  0.25428384     1.02500
O76         O  0.56608309  0.37699662  0.21296466    -0.85500
O77         O  0.52658003  0.32669382  0.23102328    -0.82500
C78         C  0.51293514  0.31284339  0.21311112     0.98000
O79         O  0.49641238  0.31792665  0.20277326    -0.82600
O80         O  0.47718833  0.34975232  0.18558110    -0.85200
C81         C  0.49619824  0.36275056  0.17044287     1.02500
O82         O  0.51917654  0.38287943  0.17700877    -0.78000
O83         O  0.56492660  0.41401382  0.20531520    -0.78100
C84         C  0.57741655  0.40095558  0.20441078     1.02400
Cr85       Cr  0.53971694  0.36578331  0.23990449     1.93700
Cr86       Cr  0.48177609  0.33920595  0.21839445     1.93200
Cr87       Cr  0.52443188  0.39992442  0.20882750     1.39100
O88         O  0.51530715  0.36827700  0.22256205    -1.23200
O89         O  0.44594806  0.20411101  0.42783096    -0.85500
O90         O  0.42430929  0.15964736  0.45861804    -0.82500
C91         C  0.41837939  0.14015066  0.44416483     0.98000
O92         O  0.43739460  0.13760852  0.43522718    -0.82500
O93         O  0.48847940  0.15274664  0.41691612    -0.85200
C94         C  0.49023403  0.16571955  0.39806402     1.02500
O95         O  0.49278340  0.18910270  0.39942073    -0.78000
O96         O  0.48870510  0.23189871  0.41625626    -0.78100
C97         C  0.46320595  0.22198148  0.41362214     1.02500
O98         O  0.48640363  0.23818169  0.46288109    -0.85500
O99         O  0.46820676  0.19197858  0.49139391    -0.82500
C100        C  0.46407084  0.16883689  0.49796217     0.98000
O101        O  0.45997690  0.15066143  0.48262163    -0.82600
O102        O  0.51201526  0.17059146  0.46416391    -0.85200
C103        C  0.53378610  0.18666712  0.45282245     1.02500
O104        O  0.53298273  0.19948489  0.43488854    -0.78000
O105        O  0.52482023  0.23970610  0.45443443    -0.78100
C106        C  0.51254540  0.25120113  0.46277322     1.02400
Cr107      Cr  0.45786111  0.19780299  0.45927610     1.93700
Cr108      Cr  0.47485287  0.15536017  0.44946339     1.93200
Cr109      Cr  0.50776518  0.21309848  0.42771430     1.39100
O110        O  0.48022163  0.18876352  0.44558329    -1.23200
O111        O  0.82487667  0.43591999  0.25135226    -0.85500
O112        O  0.81952508  0.47954270  0.26581973    -0.82500
C113        C  0.81945791  0.50172376  0.26508314     0.98000
O114        O  0.82080726  0.51280783  0.24531142    -0.82500
O115        O  0.87286685  0.52757636  0.22854334    -0.85200
C116        C  0.89190214  0.52453353  0.22025776     1.02500
O117        O  0.88616823  0.50538114  0.20550722    -0.78000
O118        O  0.86671254  0.46174200  0.23679539    -0.78100
C119        C  0.85027740  0.44422079  0.25165419     1.02500
O120        O  0.78720102  0.42455445  0.21348653    -0.85500
O121        O  0.77810431  0.46493173  0.22991121    -0.82500
C122        C  0.77654683  0.47646720  0.21128832     0.98000
O123        O  0.79800059  0.49194653  0.19920319    -0.82600
O124        O  0.85082576  0.51290161  0.18109270    -0.85200
C125        C  0.84613698  0.49423831  0.16614591     1.02500
O126        O  0.84183439  0.47126569  0.17335140    -0.78000
O127        O  0.82550992  0.42665149  0.20324191    -0.78100
C128        C  0.79947168  0.41349730  0.20428513     1.02400
Cr129      Cr  0.80451343  0.45306267  0.23868507     1.93700
Cr130      Cr  0.83543857  0.50895255  0.21390778     1.93200
Cr131      Cr  0.85335491  0.46702864  0.20567239     1.39100
O132        O  0.83104182  0.47621679  0.21943169    -1.23200
O133        O  0.49105699  0.25727135  0.91799974    -0.85500
O134        O  0.49880395  0.30621769  0.90149570    -0.82500
C135        C  0.49812285  0.32806444  0.90086119     0.98000
O136        O  0.49663289  0.33912963  0.91993990    -0.82500
O137        O  0.44472518  0.30271822  0.93643405    -0.85200
C138        C  0.42468262  0.28078166  0.94470215     1.02500
O139        O  0.42896938  0.26701984  0.95990653    -0.78000
O140        O  0.44869535  0.24253700  0.92996120    -0.78100
C141        C  0.46533703  0.24089734  0.91612451     1.02500
O142        O  0.52755221  0.28607137  0.95666287    -0.85500
O143        O  0.53870136  0.33558962  0.93763332    -0.82500
C144        C  0.53981082  0.34992229  0.95533762     0.98000
O145        O  0.51835439  0.34403250  0.96692617    -0.82600
O146        O  0.46554787  0.31169347  0.98450522    -0.85200
C147        C  0.46982982  0.29807310  0.99980982     1.02500
O148        O  0.47254721  0.27831505  0.99323139    -0.78000
O149        O  0.48817172  0.24865285  0.96486017    -0.78100
C150        C  0.51432232  0.26182254  0.96468291     1.02400
Cr151      Cr  0.51201903  0.29610480  0.92984093     1.93700
Cr152      Cr  0.48146218  0.32222152  0.95173165     1.93200
Cr153      Cr  0.46128334  0.26149685  0.96117907     1.39100
O154        O  0.48498257  0.29328950  0.94757546    -1.23200
O155        O  0.57263437  0.43546722  0.73727473    -0.85500
O156        O  0.59181495  0.48856618  0.72540028    -0.82500
C157        C  0.60896638  0.51408777  0.72638801     0.98000
O158        O  0.63405669  0.52363411  0.72074016    -0.82500
O159        O  0.65976529  0.51207630  0.75605587    -0.85200
C160        C  0.66611299  0.49867791  0.76955153     1.02500
O161        O  0.66091072  0.47509736  0.76322002    -0.78000
O162        O  0.60414414  0.44659763  0.76488009    -0.78100
C163        C  0.57933209  0.43687141  0.75900851     1.02500
O164        O  0.59533396  0.42842941  0.69315150    -0.85500
O165        O  0.61225620  0.48189956  0.68013028    -0.82500
C166        C  0.63691850  0.49426657  0.67254195     0.98000
O167        O  0.65665407  0.50169152  0.68667043    -0.82600
O168        O  0.68453200  0.49263383  0.72103022    -0.85200
C169        C  0.68072040  0.46879095  0.71663319     1.02500
O170        O  0.65749853  0.44733604  0.71996460    -0.78000
O171        O  0.60193835  0.41279309  0.72621994    -0.78100
C172        C  0.59392761  0.40892163  0.70492487     1.02400
Cr173      Cr  0.59563773  0.45963105  0.70994768     1.93700
Cr174      Cr  0.65642196  0.50491626  0.72130140     1.93200
Cr175      Cr  0.63084731  0.44730254  0.74220457     1.39100
O176        O  0.62763356  0.47080080  0.72424084    -1.23200
O177        O  0.53134234  0.12358136  0.73723829    -0.85500
O178        O  0.48506981  0.10091949  0.70869236    -0.82500
C179        C  0.46650776  0.09471486  0.72426944     0.98000
O180        O  0.46345068  0.11339213  0.73335695    -0.82500
O181        O  0.47783383  0.16472900  0.75085421    -0.85200
C182        C  0.49133213  0.16684830  0.76945667     1.02500
O183        O  0.51447311  0.16894808  0.76773594    -0.78000
O184        O  0.55794641  0.16629976  0.74955740    -0.78100
C185        C  0.55027394  0.14102849  0.75063766     1.02500
O186        O  0.56268067  0.16487190  0.70215280    -0.85500
O187        O  0.51559917  0.14619429  0.67561351    -0.82500
C188        C  0.49209323  0.14144921  0.66979933     0.98000
O189        O  0.47359204  0.13465056  0.68543790    -0.82600
O190        O  0.49395802  0.18708114  0.70322462    -0.85200
C191        C  0.51050751  0.20928155  0.71388801     1.02500
O192        O  0.52265597  0.20892178  0.73252004    -0.78000
O193        O  0.56288772  0.20230740  0.71199287    -0.78100
C194        C  0.57466534  0.19097046  0.70247891     1.02400
Cr195      Cr  0.52284151  0.13530927  0.70682879     1.93700
Cr196      Cr  0.47951311  0.15036977  0.71846806     1.93200
Cr197      Cr  0.53760800  0.18452585  0.73917399     1.39100
O198        O  0.51332390  0.15665437  0.72160519    -1.23200
O199        O  0.71882977  0.21702535  0.90234221    -0.85500
O200        O  0.66969972  0.17014360  0.89141077    -0.82500
C201        C  0.64688467  0.14787577  0.89350021     0.98000
O202        O  0.63683744  0.13932003  0.91391504    -0.82500
O203        O  0.67584427  0.12909918  0.93303938    -0.85200
C204        C  0.69885139  0.13452437  0.94139862     1.02500
O205        O  0.71248827  0.15551009  0.95478376    -0.78000
O206        O  0.73780424  0.19766912  0.92202824    -0.78100
C207        C  0.73766617  0.21167538  0.90471195     1.02500
O208        O  0.69196038  0.23164863  0.93707455    -0.85500
O209        O  0.64182818  0.18719427  0.92417147    -0.82500
C210        C  0.63030698  0.17935701  0.94429405     0.98000
O211        O  0.63622418  0.16531421  0.95770288    -0.82600
O212        O  0.66857269  0.14753212  0.97833198    -0.85200
C213        C  0.68074070  0.16817750  0.99191209     1.02500
O214        O  0.69957657  0.19081677  0.98352120    -0.78000
O215        O  0.72844831  0.23295380  0.95142744    -0.78100
C216        C  0.71509782  0.24469888  0.94728028     1.02400
Cr217      Cr  0.68088766  0.19992174  0.91538203     1.93700
Cr218      Cr  0.65646693  0.14765352  0.94517938     1.93200
Cr219      Cr  0.71705743  0.19309868  0.95203839     1.39100
O220        O  0.68508696  0.18038795  0.93734220    -1.23200
O221        O  0.86997191  0.41072198  0.73747334    -0.85500
O222        O  0.88710253  0.38554888  0.70589516    -0.82500
C223        C  0.89257702  0.37200474  0.72047328     0.98000
O224        O  0.87326482  0.34948247  0.72875106    -0.82500
O225        O  0.82224849  0.31232390  0.74736843    -0.85200
C226        C  0.82344587  0.32358516  0.76720632     1.02500
O227        O  0.82338104  0.34571827  0.76774534    -0.78000
O228        O  0.82914899  0.39448627  0.75390874    -0.78100
C229        C  0.85475160  0.41193084  0.75319388     1.02500
O230        O  0.82696995  0.40331999  0.70613481    -0.85500
O231        O  0.84049011  0.37366453  0.67546750    -0.82500
C232        C  0.84313619  0.35423015  0.66779074     0.98000
O233        O  0.84931969  0.34118840  0.68207454    -0.82600
O234        O  0.79759990  0.30973469  0.70158081    -0.85200
C235        C  0.77672476  0.30431724  0.71389477     1.02500
O236        O  0.77956674  0.31637194  0.73361264    -0.78000
O237        O  0.78894916  0.36616298  0.71761134    -0.78100
C238        C  0.80093171  0.38993704  0.70863499     1.02400
Cr239      Cr  0.85453960  0.39090311  0.70707667     1.93700
Cr240      Cr  0.83543276  0.33019623  0.71535262     1.93200
Cr241      Cr  0.80714815  0.35587140  0.74173243     1.39100
O242        O  0.83243920  0.35914631  0.72147901    -1.23200
O243        O  0.76403015  0.50381349  0.90758215    -0.85500
O244        O  0.80593693  0.49724623  0.89097930    -0.82500
C245        C  0.82766451  0.49636084  0.89057403     0.98000
O246        O  0.83863886  0.49559159  0.90982427    -0.82500
O247        O  0.85523394  0.54616821  0.92977257    -0.85200
C248        C  0.85248679  0.56495419  0.93900616     1.02500
O249        O  0.83463607  0.55883354  0.95509504    -0.78000
O250        O  0.79159726  0.54409923  0.92429743    -0.78100
C251        C  0.77396034  0.52953692  0.90874694     1.02500
O252        O  0.75129926  0.46269588  0.94272112    -0.85500
O253        O  0.79008149  0.45303706  0.92371906    -0.82500
C254        C  0.80089901  0.44908153  0.94170428     0.98000
O255        O  0.81729216  0.46922230  0.95482003    -0.82600
O256        O  0.84018983  0.52091757  0.97636989    -0.85200
C257        C  0.82189802  0.51652370  0.99163343     1.02500
O258        O  0.79909655  0.51307694  0.98491754    -0.78000
O259        O  0.75483971  0.50084802  0.95568520    -0.78100
C260        C  0.74089531  0.47491446  0.95312228     1.02400
Cr261      Cr  0.77965003  0.48105450  0.91779191     1.93700
Cr262      Cr  0.83560780  0.50791454  0.94251436     1.93200
Cr263      Cr  0.79563766  0.52754525  0.95393764     1.39100
O264        O  0.80347666  0.50537327  0.93812773    -1.23200
O265        O  0.23331622  0.48818197  0.57913408    -0.85500
O266        O  0.28183819  0.49727778  0.59893574    -0.82500
C267        C  0.30463885  0.49849124  0.60035737     0.98000
O268        O  0.31837205  0.50104985  0.58174858    -0.82500
O269        O  0.28802713  0.44987301  0.56215344    -0.85200
C270        C  0.26757188  0.42903905  0.55285158     1.02500
O271        O  0.25252019  0.43208482  0.53807236    -0.78000
O272        O  0.22337404  0.44722503  0.56731408    -0.78100
C273        C  0.21941362  0.46233486  0.58126698     1.02500
O274        O  0.26387372  0.52749448  0.54339831    -0.85500
O275        O  0.31225116  0.54102404  0.56593123    -0.82500
C276        C  0.32736055  0.54551282  0.54792584     0.98000
O277        O  0.32430854  0.52546696  0.53553846    -0.82600
O278        O  0.29801382  0.47319583  0.51574316    -0.85200
C279        C  0.28386409  0.47565882  0.49980782     1.02500
O280        O  0.26221140  0.47558372  0.50534054    -0.78000
O281        O  0.22854172  0.48752377  0.53239181    -0.78100
C282        C  0.24083639  0.51373539  0.53314227     1.02400
Cr283      Cr  0.27289493  0.51166787  0.57050216     1.93700
Cr284      Cr  0.30495636  0.48740061  0.54891644     1.93200
Cr285      Cr  0.24374397  0.46230959  0.53673772     1.39100
O286        O  0.27383089  0.48705822  0.55196711    -1.23200
O287        O  0.13758829  0.55477459  0.76571121    -0.85500
O288        O  0.10016444  0.50180284  0.77733998    -0.82500
C289        C  0.09028091  0.47617969  0.77773233     0.98000
O290        O  0.10518853  0.46671405  0.78410738    -0.82500
O291        O  0.14361471  0.47799384  0.74910547    -0.85200
C292        C  0.16497614  0.49045219  0.73648992     1.02500
O293        O  0.18466343  0.51371779  0.74315127    -0.78000
O294        O  0.15991824  0.54448042  0.73950337    -0.78100
C295        C  0.14477126  0.55407157  0.74439384     1.02500
O296        O  0.16465040  0.56176894  0.81096454    -0.85500
O297        O  0.12557524  0.50836460  0.82343855    -0.82500
C298        C  0.13758103  0.49659036  0.83177164     0.98000
O299        O  0.14979301  0.48856489  0.81835216    -0.82600
O300        O  0.18708790  0.49567410  0.78492244    -0.85200
C301        C  0.20785501  0.51892712  0.79080748     1.02500
O302        O  0.20794685  0.54088588  0.78737197    -0.78000
O303        O  0.19047456  0.57702933  0.77922036    -0.78100
C304        C  0.18422246  0.58128098  0.79968323     1.02400
Cr305      Cr  0.13354914  0.53060329  0.79347652     1.93700
Cr306      Cr  0.14680470  0.48478502  0.78383872     1.93200
Cr307      Cr  0.18355603  0.54225861  0.76359429     1.39100
O308        O  0.15440826  0.51912799  0.78048139    -1.23200
O309        O  0.40523637  0.86906783  0.76152001    -0.85500
O310        O  0.38274765  0.88962153  0.79281411    -0.82500
C311        C  0.36992262  0.89604447  0.77832215     0.98000
O312        O  0.34762906  0.87726159  0.76914524    -0.82500
O313        O  0.30797319  0.82597012  0.75151534    -0.85200
C314        C  0.31785633  0.82325543  0.73220058     1.02500
O315        O  0.33922593  0.82183521  0.73232054    -0.78000
O316        O  0.38736350  0.82714087  0.74677187    -0.78100
C317        C  0.40475985  0.85279536  0.74585086     1.02500
O318        O  0.39665525  0.82711969  0.79456527    -0.85500
O319        O  0.36822550  0.84339713  0.82437964    -0.82500
C320        C  0.34953486  0.84770692  0.83122870     0.98000
O321        O  0.33779796  0.85472260  0.81624198    -0.82600
O322        O  0.30323223  0.80284271  0.79818592    -0.85200
C323        C  0.29657864  0.78081184  0.78713365     1.02500
O324        O  0.30915159  0.78137025  0.76830150    -0.78000
O325        O  0.35817211  0.78944920  0.78510956    -0.78100
C326        C  0.38214625  0.80101940  0.79360259     1.02400
Cr327      Cr  0.38581986  0.85573064  0.79247930     1.93700
Cr328      Cr  0.32616580  0.83984750  0.78334800     1.93200
Cr329      Cr  0.34885268  0.80701407  0.75960384     1.39100
O330        O  0.35367670  0.83422578  0.77831249    -1.23200
O331        O  0.22020473  0.73359135  0.58612930    -0.85500
O332        O  0.17844170  0.68439615  0.60260737    -0.82500
C333        C  0.15560583  0.66206258  0.60381457     0.98000
O334        O  0.14139408  0.65143280  0.58520748    -0.82500
O335        O  0.12591527  0.68742458  0.56809402    -0.85200
C336        C  0.12802514  0.70854216  0.55851357     1.02500
O337        O  0.14766539  0.72256515  0.54410294    -0.78000
O338        O  0.19234885  0.74750403  0.57475575    -0.78100
C339        C  0.21081832  0.74940989  0.58845689     1.02500
O340        O  0.22744568  0.70534807  0.54679067    -0.85500
O341        O  0.18804357  0.65520856  0.56586248    -0.82500
C342        C  0.17386178  0.64067010  0.54837843     0.98000
O343        O  0.15765482  0.64612268  0.53789619    -0.82600
O344        O  0.13877637  0.67820095  0.52023110    -0.85200
C345        C  0.15773125  0.69145771  0.50509412     1.02500
O346        O  0.18062665  0.71176052  0.51166224    -0.78000
O347        O  0.22673337  0.74276825  0.53985288    -0.78100
C348        C  0.23927965  0.72968993  0.53906235     1.02400
Cr349      Cr  0.20164600  0.69476651  0.57399828     1.93700
Cr350      Cr  0.14333445  0.66801208  0.55322392     1.93200
Cr351      Cr  0.18605457  0.72881286  0.54345380     1.39100
O352        O  0.17695610  0.69713708  0.55701799    -1.23200
O353        O  0.42806594  0.57440599  0.75679750    -0.85500
O354        O  0.48263849  0.59444779  0.76681667    -0.82500
C355        C  0.50815245  0.61184350  0.76796494     0.98000
O356        O  0.51687216  0.63628546  0.77534383    -0.82500
O357        O  0.50674285  0.66410461  0.74028803    -0.85200
C358        C  0.49268935  0.66905841  0.72616369     1.02500
O359        O  0.46847354  0.66258876  0.73169012    -0.78000
O360        O  0.43907824  0.60594042  0.72950721    -0.78100
C361        C  0.42734436  0.58093757  0.73537577     1.02500
O362        O  0.42308775  0.59650198  0.80154186    -0.85500
O363        O  0.47625132  0.61245079  0.81362021    -0.82500
C364        C  0.48647255  0.63633741  0.82265609     0.98000
O365        O  0.49299496  0.65678350  0.80961735    -0.82600
O366        O  0.48554281  0.68645137  0.77568897    -0.85200
C367        C  0.46143583  0.68192218  0.77981205     1.02500
O368        O  0.44044871  0.65888858  0.77515378    -0.78000
O369        O  0.40662168  0.60409347  0.76933957    -0.78100
C370        C  0.40350233  0.59592234  0.79057612     1.02400
Cr371      Cr  0.45359786  0.59704763  0.78368730     1.93700
Cr372      Cr  0.49801873  0.65856145  0.77490554     1.93200
Cr373      Cr  0.44064373  0.63270395  0.75270620     1.39100
O374        O  0.46430293  0.62946446  0.77045282    -1.23200
O375        O  0.48794581  0.76920117  0.58480175    -0.85500
O376        O  0.48665716  0.81477624  0.59874729    -0.82500
C377        C  0.48757925  0.83744037  0.59838798     0.98000
O378        O  0.48879282  0.84863870  0.57863983    -0.82500
O379        O  0.53897943  0.86070870  0.55922204    -0.85200
C380        C  0.55685485  0.85603044  0.55074192     1.02500
O381        O  0.54966483  0.83562596  0.53698700    -0.78000
O382        O  0.52949511  0.79294538  0.56941163    -0.78100
C383        C  0.51329452  0.77732213  0.58544722     1.02500
O384        O  0.44945358  0.75978505  0.54779376    -0.85500
O385        O  0.44414688  0.80192242  0.56510920    -0.82500
C386        C  0.44176284  0.81205132  0.54599895     0.98000
O387        O  0.46273910  0.82652260  0.53309240    -0.82600
O388        O  0.51416053  0.84446572  0.51335128    -0.85200
C389        C  0.50709667  0.82473211  0.49898072     1.02500
O390        O  0.50304363  0.80195065  0.50643767    -0.78000
O391        O  0.48568505  0.75803342  0.53721729    -0.78100
C392        C  0.45975198  0.74696638  0.53838246     1.02400
Cr393      Cr  0.46906984  0.78801940  0.57257119     1.93700
Cr394      Cr  0.50085021  0.84274991  0.54648660     1.93200
Cr395      Cr  0.51553777  0.79807787  0.53843718     1.39100
O396        O  0.49530330  0.80964191  0.55257819    -1.23200
O397        O  0.23153527  0.77223875  0.07113060    -0.85500
O398        O  0.25087986  0.82512060  0.05643685    -0.82500
C399        C  0.26893970  0.85037795  0.05842564     0.98000
O400        O  0.29427802  0.85922884  0.05435352    -0.82500
O401        O  0.32120614  0.84746622  0.08739082    -0.85200
C402        C  0.32731646  0.83383766  0.10071828     1.02500
O403        O  0.32077804  0.80980668  0.09474018    -0.78000
O404        O  0.26392607  0.78386119  0.09801951    -0.78100
C405        C  0.23879261  0.77335567  0.09274258     1.02500
O406        O  0.25291334  0.76265115  0.02683116    -0.85500
O407        O  0.26977642  0.81525382  0.01179338    -0.82500
C408        C  0.29437338  0.82855578  0.00410033     0.98000
O409        O  0.31439195  0.83688388  0.01807297    -0.82600
O410        O  0.34240540  0.82545842  0.05058094    -0.85200
C411        C  0.33715535  0.80090145  0.04680927     1.02500
O412        O  0.31396248  0.78031354  0.05207126    -0.78000
O413        O  0.25874957  0.74813889  0.06067763    -0.78100
C414        C  0.25158536  0.74361919  0.03925225     1.02400
Cr415      Cr  0.25394437  0.79484256  0.04258219     1.93700
Cr416      Cr  0.31566674  0.83963923  0.05282548     1.93200
Cr417      Cr  0.28914654  0.78255894  0.07493243     1.39100
O418        O  0.28625347  0.80603326  0.05654889    -1.23200
O419        O  0.42622256  0.83706917  0.24315214    -0.85500
O420        O  0.46872461  0.83181199  0.22725960    -0.82500
C421        C  0.49079907  0.83162715  0.22659034     0.98000
O422        O  0.50336819  0.83344892  0.24572202    -0.82500
O423        O  0.51854942  0.88471121  0.26379371    -0.85200
C424        C  0.51560473  0.90366314  0.27227889     1.02500
O425        O  0.49721361  0.89804610  0.28783172    -0.78000
O426        O  0.45363119  0.87902632  0.25689199    -0.78100
C427        C  0.43622567  0.86278886  0.24189534     1.02500
O428        O  0.41692165  0.79921004  0.28086188    -0.85500
O429        O  0.45629023  0.79055755  0.26214119    -0.82500
C430        C  0.46766948  0.78862770  0.28068630     0.98000
O431        O  0.48406702  0.81006620  0.29236222    -0.82600
O432        O  0.50462028  0.86200434  0.31136437    -0.85200
C433        C  0.48552869  0.85622184  0.32623172     1.02500
O434        O  0.46289713  0.85288893  0.31923154    -0.78000
O435        O  0.41784260  0.83707645  0.29033381    -0.78100
C436        C  0.40533230  0.81093901  0.28994551     1.02400
Cr437      Cr  0.44376507  0.81660926  0.25475487     1.93700
Cr438      Cr  0.50048165  0.84743700  0.27803431     1.93200
Cr439      Cr  0.45860797  0.86524477  0.28769403     1.39100
O440        O  0.46760857  0.84309690  0.27347232    -1.23200
O441        O  0.15139168  0.58978169  0.25050310    -0.85500
O442        O  0.15691455  0.63816359  0.23424336    -0.82500
C443        C  0.15729552  0.66056806  0.23388078     0.98000
O444        O  0.15785600  0.67237833  0.25327541    -0.82500
O445        O  0.10686051  0.63681853  0.27193141    -0.85200
C446        C  0.08702147  0.61455888  0.27996143     1.02500
O447        O  0.09156405  0.60028219  0.29447900    -0.78000
O448        O  0.10980107  0.57518239  0.26414667    -0.78100
C449        C  0.12568359  0.57282480  0.24999374     1.02500
O450        O  0.19005206  0.62008440  0.28711679    -0.85500
O451        O  0.19987824  0.66885630  0.26814301    -0.82500
C452        C  0.20280609  0.68235488  0.28698179     0.98000
O453        O  0.18210212  0.67673699  0.29965811    -0.82600
O454        O  0.12957309  0.64551927  0.31892072    -0.85200
C455        C  0.13357221  0.63124414  0.33369295     1.02500
O456        O  0.13652937  0.61182764  0.32660898    -0.78000
O457        O  0.15181213  0.58249366  0.29755136    -0.78100
C458        C  0.17802428  0.59639721  0.29625485     1.02400
Cr459      Cr  0.17262275  0.62903565  0.26139305     1.93700
Cr460      Cr  0.14426600  0.65577814  0.28569824     1.93200
Cr461      Cr  0.12405089  0.59479569  0.29483550     1.39100
O462        O  0.14690250  0.62645740  0.28065398    -1.23200
O463        O  0.21476747  0.47944524  0.07177232    -0.85500
O464        O  0.16083458  0.44073646  0.06355630    -0.82500
C465        C  0.13514733  0.43030755  0.06270417     0.98000
O466        O  0.12528103  0.44444670  0.05516530    -0.82500
O467        O  0.13664545  0.48354319  0.08946276    -0.85200
C468        C  0.14958350  0.50500879  0.10189226     1.02500
O469        O  0.17243244  0.52484277  0.09456249    -0.78000
O470        O  0.20476695  0.50207790  0.09777478    -0.78100
C471        C  0.21546122  0.48795783  0.09288829     1.02500
O472        O  0.21702114  0.50285680  0.02555979    -0.85500
O473        O  0.16354306  0.46197749  0.01612585    -0.82500
C474        C  0.15242806  0.47442978  0.00732917     0.98000
O475        O  0.14551670  0.48784923  0.02039056    -0.82600
O476        O  0.15252136  0.52601184  0.05301699    -0.85200
C477        C  0.17545520  0.54660504  0.04628353     1.02500
O478        O  0.19749943  0.54686482  0.04929055    -0.78000
O479        O  0.23417920  0.53063286  0.05613588    -0.78100
C480        C  0.23680947  0.52367314  0.03540203     1.02400
Cr481      Cr  0.18804332  0.47270880  0.04512668     1.93700
Cr482      Cr  0.14242357  0.48587875  0.05477694     1.93200
Cr483      Cr  0.20045029  0.52393006  0.07334512     1.39100
O484        O  0.17689112  0.49395841  0.05767298    -1.23200
O485        O  0.52329567  0.74294530  0.06696408    -0.85500
O486        O  0.54360013  0.71909109  0.03689581    -0.82500
C487        C  0.54889387  0.70544465  0.05154202     0.98000
O488        O  0.52964665  0.68299941  0.05988247    -0.82500
O489        O  0.47852070  0.64448548  0.07739174    -0.85200
C490        C  0.47806691  0.65558414  0.09686940     1.02500
O491        O  0.47774078  0.67758601  0.09653313    -0.78000
O492        O  0.48164216  0.72529837  0.08194698    -0.78100
C493        C  0.50712410  0.74307996  0.08236945     1.02500
O494        O  0.48101943  0.73350888  0.03334571    -0.85500
O495        O  0.49813010  0.70514466  0.00410642    -0.82500
C496        C  0.50205936  0.68618247  0.99727539     0.98000
O497        O  0.50804348  0.67377893  0.01246208    -0.82600
O498        O  0.45575782  0.64090020  0.03049918    -0.85200
C499        C  0.43433410  0.63450170  0.04232472     1.02500
O500        O  0.43588979  0.64697411  0.06150913    -0.78000
O501        O  0.44344679  0.69574543  0.04461020    -0.78100
C502        C  0.45488037  0.71933150  0.03529352     1.02400
Cr503      Cr  0.50994550  0.72280419  0.03615451     1.93700
Cr504      Cr  0.49269419  0.66262399  0.04539515     1.93200
Cr505      Cr  0.46168519  0.68667797  0.06968401     1.39100
O506        O  0.48814129  0.69086791  0.05042548    -1.23200
O507        O  0.39982953  0.57214934  0.25151322    -0.85500
O508        O  0.35155779  0.53053430  0.23332122    -0.82500
C509        C  0.32927307  0.50775846  0.23140650     0.98000
O510        O  0.31704746  0.49378615  0.24976145    -0.82500
O511        O  0.35124600  0.47770193  0.26841242    -0.85200
C512        C  0.37232908  0.47961341  0.27778842     1.02500
O513        O  0.38601132  0.49838005  0.29298747    -0.78000
O514        O  0.41191486  0.54291761  0.26261506    -0.78100
C515        C  0.41456482  0.56158928  0.24880312     1.02500
O516        O  0.36932915  0.57821220  0.28961280    -0.85500
O517        O  0.32038912  0.53991848  0.26817357    -0.82500
C518        C  0.30506748  0.52623240  0.28544431     0.98000
O519        O  0.30984675  0.51003257  0.29680473    -0.82600
O520        O  0.34056577  0.48990638  0.31578866    -0.85200
C521        C  0.35451675  0.50811926  0.33136840     1.02500
O522        O  0.37511882  0.53104582  0.32531039    -0.78000
O523        O  0.40657499  0.57740626  0.29761714    -0.78100
C524        C  0.39328252  0.58974812  0.29816962     1.02400
Cr525      Cr  0.36032292  0.55337221  0.26202450     1.93700
Cr526      Cr  0.33183923  0.49516191  0.28250290     1.93200
Cr527      Cr  0.39268544  0.53681552  0.29372149     1.39100
O528        O  0.36150753  0.52839376  0.27947086    -1.23200
O529        O  0.90693858  0.13059205  0.40813054    -0.85500
O530        O  0.93240216  0.17452428  0.37699835    -0.82500
C531        C  0.94672600  0.19530197  0.39041177     0.98000
O532        O  0.96917124  0.19962728  0.39904013    -0.82500
O533        O  0.00618199  0.18762610  0.41888688    -0.85200
C534        C  0.99538245  0.17726562  0.43882111     1.02500
O535        O  0.97280795  0.15456732  0.43944465    -0.78000
O536        O  0.92439543  0.10848728  0.42554907    -0.78100
C537        C  0.90607884  0.11468450  0.42414204     1.02500
O538        O  0.91667741  0.09674838  0.37656649    -0.85500
O539        O  0.94517752  0.14120497  0.34612630    -0.82500
C540        C  0.96442603  0.16411839  0.33851167     0.98000
O541        O  0.97830825  0.18361497  0.35300143    -0.82600
O542        O  0.00933969  0.16473536  0.37367367    -0.85200
C543        C  0.01498262  0.15013298  0.38650344     1.02500
O544        O  0.00266885  0.14089627  0.40612809    -0.78000
O545        O  0.95335493  0.09763045  0.38990782    -0.78100
C546        C  0.93021829  0.08492869  0.37968623     1.02400
Cr547      Cr  0.92784329  0.13677636  0.37796386     1.93700
Cr548      Cr  0.98856237  0.18145253  0.38662279     1.93200
Cr549      Cr  0.96303366  0.12713234  0.41363699     1.39100
O550        O  0.95958367  0.14835700  0.39280643    -1.23200
O551        O  0.09559695  0.16784405  0.57760032    -0.85500
O552        O  0.13953706  0.16282603  0.56642899    -0.82500
C553        C  0.16203312  0.16359339  0.56805071     0.98000
O554        O  0.17195299  0.16406448  0.58818394    -0.82500
O555        O  0.18571185  0.21617152  0.60384770    -0.85200
C556        C  0.18230832  0.23528176  0.61132897     1.02500
O557        O  0.16245022  0.22958978  0.62530792    -0.78000
O558        O  0.11992785  0.20968080  0.59270927    -0.78100
C559        C  0.10411089  0.19331107  0.57681317     1.02500
O560        O  0.08179300  0.13009445  0.61613782    -0.85500
O561        O  0.12325957  0.12116671  0.60252682    -0.82500
C562        C  0.13357247  0.12001076  0.62206287     0.98000
O563        O  0.14891135  0.14172876  0.63392179    -0.82600
O564        O  0.16881624  0.19471060  0.65094421    -0.85200
C565        C  0.14887728  0.18803492  0.66492477     1.02500
O566        O  0.12654440  0.18447081  0.65685118    -0.78000
O567        O  0.08370361  0.16858918  0.62535974    -0.78100
C568        C  0.07038511  0.14255861  0.62416003     1.02400
Cr569      Cr  0.11176236  0.14747994  0.59216542     1.93700
Cr570      Cr  0.16652718  0.17891812  0.61874399     1.93200
Cr571      Cr  0.12402043  0.19649883  0.62430525     1.39100
O572        O  0.13396185  0.17426347  0.61166403    -1.23200
O573        O  0.19618407  0.08817011  0.40455710    -0.85500
O574        O  0.21886283  0.06614775  0.37411602    -0.82500
C575        C  0.22277826  0.05098761  0.38808775     0.98000
O576        O  0.20263521  0.02829877  0.39494330    -0.82500
O577        O  0.15054935  0.99044798  0.40976459    -0.85200
C578        C  0.14847838  0.00053540  0.42928047     1.02500
O579        O  0.14718887  0.02202708  0.42925424    -0.78000
O580        O  0.15284090  0.07042318  0.41464828    -0.78100
C581        C  0.17801037  0.08822050  0.41766966     1.02500
O582        O  0.15797738  0.08218942  0.36846144    -0.85500
O583        O  0.17609581  0.05544041  0.33929173    -0.82500
C584        C  0.17881827  0.03594258  0.33183034     0.98000
O585        O  0.18396285  0.02234823  0.34645335    -0.82600
O586        O  0.13085431  0.98861851  0.36199067    -0.85200
C587        C  0.10869633  0.98145025  0.37283978     1.02500
O588        O  0.10865636  0.99340410  0.39180728    -0.78000
O589        O  0.11881045  0.04368375  0.37481793    -0.78100
C590        C  0.13182998  0.06844962  0.36787987     1.02400
Cr591      Cr  0.18576955  0.07056969  0.37226832     1.93700
Cr592      Cr  0.16673194  0.00950623  0.37864924     1.93200
Cr593      Cr  0.13397316  0.03265506  0.40130337     1.39100
O594        O  0.16223748  0.03767175  0.38414768    -1.23200
O595        O  0.81800476  0.93007895  0.57528365    -0.85500
O596        O  0.82162512  0.97732863  0.55904447    -0.82500
C597        C  0.82045825  0.99891604  0.55890869     0.98000
O598        O  0.82139914  0.01079620  0.57832321    -0.82500
O599        O  0.77168453  0.97425847  0.59865990    -0.85200
C600        C  0.75296786  0.95212235  0.60789910     1.02500
O601        O  0.75923137  0.93914808  0.62228804    -0.78000
O602        O  0.77680936  0.91398567  0.59079548    -0.78100
C603        C  0.79247308  0.91255903  0.57563594     1.02500
O604        O  0.85782910  0.96101704  0.61081707    -0.85500
O605        O  0.86530982  0.00922127  0.59199113    -0.82500
C606        C  0.86836992  0.02278699  0.61080478     0.98000
O607        O  0.84785211  0.01700726  0.62374961    -0.82600
O608        O  0.79691036  0.98505526  0.64462437    -0.85200
C609        C  0.80269274  0.97211257  0.65937336     1.02500
O610        O  0.80605231  0.95292716  0.65229068    -0.78000
O611        O  0.82022229  0.92351439  0.62252885    -0.78100
C612        C  0.84622548  0.93760237  0.62055657     1.02400
Cr613      Cr  0.83881290  0.96922421  0.58578529     1.93700
Cr614      Cr  0.80972145  0.99476198  0.61101965     1.93200
Cr615      Cr  0.79209451  0.93474439  0.62099764     1.39100
O616        O  0.81347951  0.96613993  0.60587665    -1.23200
O617        O  0.86347895  0.79111277  0.40026689    -0.85500
O618        O  0.81869108  0.77211586  0.37039268    -0.82500
C619        C  0.79982420  0.76587281  0.38562595     0.98000
O620        O  0.79694189  0.78458732  0.39484790    -0.82500
O621        O  0.81275597  0.83495452  0.41503869    -0.85200
C622        C  0.82489252  0.83542493  0.43404985     1.02500
O623        O  0.84735452  0.83591385  0.43305172    -0.78000
O624        O  0.89091477  0.83273358  0.41457248    -0.78100
C625        C  0.88207913  0.80720975  0.41458507     1.02500
O626        O  0.89719967  0.83418591  0.36712122    -0.85500
O627        O  0.85163125  0.81844958  0.33916650    -0.82500
C628        C  0.82875277  0.81509283  0.33290683     0.98000
O629        O  0.81025120  0.80931070  0.34833938    -0.82600
O630        O  0.83206855  0.86089536  0.36918169    -0.85200
C631        C  0.84787502  0.88159736  0.38192860     1.02500
O632        O  0.85884396  0.87876244  0.40029379    -0.78000
O633        O  0.89830360  0.87153539  0.37910806    -0.78100
C634        C  0.90956313  0.86022853  0.36858521     1.02400
Cr635      Cr  0.85700090  0.80545526  0.37027040     1.93700
Cr636      Cr  0.81526185  0.82266421  0.38207764     1.93200
Cr637      Cr  0.87202757  0.85271219  0.40531219     1.39100
O638        O  0.84807701  0.82682802  0.38595938    -1.23200
O639        O  0.03705056  0.87805850  0.56502254    -0.85500
O640        O  0.98013673  0.85058375  0.56968154    -0.82500
C641        C  0.97476393  0.82706001  0.56316930     0.98000
O642        O  0.98250848  0.81417149  0.57577510    -0.82500
O643        O  0.00814782  0.80195258  0.61047085    -0.85200
C644        C  0.03322480  0.81065253  0.60572125     1.02500
O645        O  0.05092811  0.83615921  0.60632678    -0.78000
O646        O  0.06990198  0.88885636  0.59136799    -0.78100
C647        C  0.06214666  0.88768855  0.56992290     1.02500
O648        O  0.04236289  0.91360075  0.60274407    -0.85500
O649        O  0.98738419  0.87972707  0.61254588    -0.82500
C650        C  0.96427975  0.85865708  0.61726361     0.98000
O651        O  0.95943630  0.83454748  0.61231141    -0.82600
O652        O  0.98768792  0.82456357  0.64531172    -0.85200
C653        C  0.00800069  0.83357194  0.65906259     1.02500
O654        O  0.03257325  0.84690220  0.65123113    -0.78000
O655        O  0.05022626  0.89956146  0.63597821    -0.78100
C656        C  0.05098459  0.91850830  0.62379893     1.02400
Cr657      Cr  0.01202761  0.87856236  0.58889419     1.93700
Cr658      Cr  0.98682166  0.82145408  0.61061067     1.93200
Cr659      Cr  0.04830334  0.86680601  0.62026703     1.39100
O660        O  0.01582419  0.85538170  0.60687928    -1.23200
O661        O  0.92351450  0.80846218  0.92999811    -0.85500
O662        O  0.97955556  0.84441156  0.92977452    -0.82500
C663        C  0.98767722  0.82779255  0.93251823     0.98000
O664        O  0.98409355  0.81102216  0.91620215    -0.82500
O665        O  0.96045340  0.77726004  0.87758837    -0.85200
C666        C  0.93570313  0.75832390  0.88160552     1.02500
O667        O  0.91668359  0.76347248  0.88290681    -0.78000
O668        O  0.89264906  0.79022599  0.90159463    -0.78100
C669        C  0.89876238  0.79346440  0.92361166     1.02500
O670        O  0.91703220  0.84306101  0.89756483    -0.85500
O671        O  0.97352052  0.87288890  0.89181166    -0.82500
C672        C  0.99749542  0.87842050  0.88647574     0.98000
O673        O  0.00363207  0.85978121  0.88619692    -0.82600
O674        O  0.97892042  0.82574204  0.84858822    -0.85200
C675        C  0.95958296  0.81238631  0.83411731     1.02500
O676        O  0.93491432  0.79752904  0.84136297    -0.78000
O677        O  0.91403581  0.82802800  0.86134342    -0.78100
C678        C  0.90903740  0.84141428  0.87640837     1.02400
Cr679      Cr  0.94838688  0.84040359  0.91049861     1.93700
Cr680      Cr  0.97924258  0.81836426  0.88255960     1.93200
Cr681      Cr  0.91714202  0.79653828  0.87283264     1.39100
O682        O  0.94841169  0.81837249  0.88829767    -1.23200
O683        O  0.11126113  0.91364463  0.09008261    -0.85500
O684        O  0.15437866  0.93891361  0.12210827    -0.82500
C685        C  0.17463674  0.95242529  0.10812300     0.98000
O686        O  0.17862806  0.97450263  0.09887182    -0.82500
O687        O  0.16619832  0.01145172  0.07914466    -0.85200
C688        C  0.15510215  0.00046115  0.05945320     1.02500
O689        O  0.13207398  0.97821332  0.05919495    -0.78000
O690        O  0.08726521  0.92965310  0.07375115    -0.78100
C691        C  0.09573083  0.91304049  0.07374166     1.02500
O692        O  0.07642568  0.92163293  0.12196627    -0.85500
O693        O  0.12091619  0.95171807  0.15254699    -0.82500
C694        C  0.14413382  0.97103832  0.15980165     0.98000
O695        O  0.16336567  0.98436338  0.14499689    -0.82600
O696        O  0.14440516  0.01563402  0.12448718    -0.85200
C697        C  0.12926020  0.02081404  0.11187781     1.02500
O698        O  0.11884642  0.00765144  0.09282352    -0.78000
O699        O  0.07620974  0.95812506  0.10993468    -0.78100
C700        C  0.06403288  0.93467353  0.11963334     1.02400
Cr701      Cr  0.11657619  0.93387966  0.12070782     1.93700
Cr702      Cr  0.16071686  0.99435039  0.11145257     1.93200
Cr703      Cr  0.10536170  0.96821212  0.08557432     1.39100
O704        O  0.12747056  0.96537491  0.10585927    -1.23200
O705        O  0.16190208  0.10414966  0.92200487    -0.85500
O706        O  0.15966832  0.14901000  0.93647112    -0.82500
C707        C  0.15974666  0.17120880  0.93616669     0.98000
O708        O  0.16094418  0.18247216  0.91644774    -0.82500
O709        O  0.21084973  0.19478908  0.89633353    -0.85200
C710        C  0.22872595  0.19060524  0.88711485     1.02500
O711        O  0.22122242  0.17056342  0.87280506    -0.78000
O712        O  0.20279950  0.12847583  0.90530101    -0.78100
C713        C  0.18726046  0.11218747  0.92123158     1.02500
O714        O  0.12178628  0.09357491  0.88610213    -0.85500
O715        O  0.11618591  0.13538723  0.90333847    -0.82500
C716        C  0.11361503  0.14561925  0.88433053     0.98000
O717        O  0.13442789  0.16037698  0.87139712    -0.82600
O718        O  0.18488039  0.17825928  0.85044851    -0.85200
C719        C  0.17701662  0.15813856  0.83626590     1.02500
O720        O  0.17299508  0.13548490  0.84391027    -0.78000
O721        O  0.15802463  0.09223209  0.87487672    -0.78100
C722        C  0.13210732  0.08068246  0.87696357     1.02400
Cr723      Cr  0.14181400  0.12212434  0.91047497     1.93700
Cr724      Cr  0.17257314  0.17678344  0.88407674     1.93200
Cr725      Cr  0.18735799  0.13261383  0.87512680     1.39100
O726        O  0.16734011  0.14383459  0.89001678    -1.23200
O727        O  0.89555132  0.06406496  0.91292008    -0.85500
O728        O  0.85110288  0.01506604  0.92868562    -0.82500
C729        C  0.82719512  0.99385219  0.92913643     0.98000
O730        O  0.81365866  0.98437047  0.91005114    -0.82500
O731        O  0.80129087  0.02290468  0.89459441    -0.85200
C732        C  0.80543309  0.04575638  0.88715414     1.02500
O733        O  0.82509083  0.05976504  0.87282439    -0.78000
O734        O  0.87012854  0.08113771  0.90283644    -0.78100
C735        C  0.88875048  0.08187999  0.91557218     1.02500
O736        O  0.90012202  0.03584088  0.87270151    -0.85500
O737        O  0.85951990  0.98647905  0.89080066    -0.82500
C738        C  0.84590056  0.97328891  0.87269905     0.98000
O739        O  0.82984232  0.97937625  0.86267979    -0.82600
O740        O  0.81337139  0.01467389  0.84633273    -0.85200
C741        C  0.83218445  0.02903830  0.83141984     1.02500
O742        O  0.85554065  0.04805117  0.83844305    -0.78000
O743        O  0.90187542  0.07466774  0.86651190    -0.78100
C744        C  0.91302645  0.06032869  0.86528783     1.02400
Cr745      Cr  0.87467574  0.02571523  0.89999025     1.93700
Cr746      Cr  0.81706059  0.00249689  0.87872940     1.93200
Cr747      Cr  0.86216291  0.06331604  0.87098915     1.39100
O748        O  0.85123216  0.03045028  0.88329227    -1.23200
O749        O  0.06929714  0.20578673  0.09303497    -0.85500
O750        O  0.04568350  0.22510595  0.12448700    -0.82500
C751        C  0.03145922  0.23058238  0.11076838     0.98000
O752        O  0.00885913  0.21142866  0.10245148    -0.82500
O753        O  0.97088480  0.15998579  0.08482095    -0.85200
C754        C  0.98205661  0.16106005  0.06502524     1.02500
O755        O  0.00424117  0.16111018  0.06428833    -0.78000
O756        O  0.05185758  0.16424804  0.07790395    -0.78100
C757        C  0.06917487  0.18978258  0.07727661     1.02500
O758        O  0.06080639  0.16349494  0.12595369    -0.85500
O759        O  0.03343461  0.18020496  0.15650019    -0.82500
C760        C  0.01510583  0.18470313  0.16405485     0.98000
O761        O  0.00106739  0.18919032  0.14943208    -0.82600
O762        O  0.96862341  0.13652360  0.13083017    -0.85200
C763        C  0.96228372  0.11550440  0.11828397     1.02500
O764        O  0.97412763  0.11807515  0.09855555    -0.78000
O765        O  0.02310183  0.12556856  0.11478806    -0.78100
C766        C  0.04678530  0.13739411  0.12401691     1.02400
Cr767      Cr  0.04996603  0.19206210  0.12415663     1.93700
Cr768      Cr  0.98939169  0.17400078  0.11648413     1.93200
Cr769      Cr  0.01358848  0.14419042  0.09038387     1.39100
O770        O  0.01782091  0.17012783  0.11038697    -1.23200
O771        O  0.77217544  0.86837340  0.08869371    -0.85500
O772        O  0.75142700  0.82528770  0.12078318    -0.82500
C773        C  0.74600677  0.80527881  0.10709004     0.98000
O774        O  0.76523933  0.80213608  0.09969510    -0.82500
O775        O  0.81627013  0.81724503  0.08191308    -0.85200
C776        C  0.81784770  0.82856713  0.06214625     1.02500
O777        O  0.81884664  0.85131668  0.06152414    -0.78000
O778        O  0.81465011  0.89542833  0.07622427    -0.78100
C779        C  0.78913828  0.88579852  0.07404549     1.02500
O780        O  0.81312454  0.90394474  0.12300933    -0.85500
O781        O  0.79584533  0.86010275  0.15314319    -0.82500
C782        C  0.79285671  0.83793195  0.16105754     0.98000
O783        O  0.78828585  0.81862169  0.14685800    -0.82600
O784        O  0.84065702  0.83864156  0.12792431    -0.85200
C785        C  0.86168869  0.85349590  0.11519874     1.02500
O786        O  0.85951043  0.86446258  0.09657309    -0.78000
O787        O  0.85124137  0.90473787  0.11465536    -0.78100
C788        C  0.83916891  0.91604194  0.12375624     1.02400
Cr789      Cr  0.78468760  0.86361508  0.12052206     1.93700
Cr790      Cr  0.80281644  0.82150751  0.11374799     1.93200
Cr791      Cr  0.83397355  0.87725307  0.08873365     1.39100
O792        O  0.80706911  0.85406332  0.10763810    -1.23200
C793        C  0.92063423  0.05065463  0.15503706    -0.27700
C794        C  0.90591932  0.03145691  0.13694656     0.01900
C795        C  0.90819707  0.04041653  0.11337414     0.30000
C796        C  0.92547673  0.06818103  0.10792382    -0.19500
C797        C  0.94091472  0.08750641  0.12572584    -0.28900
C798        C  0.93803585  0.07873124  0.14954764     0.44000
C799        C  0.88913145  0.00167562  0.14167490     0.05200
O800        O  0.89406202  0.02192776  0.09540796    -0.57400
H801        H  0.92745506  0.07450969  0.08951256     0.18100
O802        O  0.95362704  0.09693475  0.16720004    -0.64200
H803        H  0.91914375  0.04377446  0.17320677     0.16600
C804        C  0.90113270  0.98545232  0.13967857     0.28800
C805        C  0.88441183  0.95703102  0.13568180    -0.25100
C806        C  0.85565771  0.94452584  0.13336617    -0.24300
C807        C  0.84359318  0.96056543  0.13777870     0.40300
C808        C  0.86039623  0.98895703  0.14172396    -0.26800
O809        O  0.92928353  0.99754263  0.13973329    -0.58700
H810        H  0.89417286  0.94513491  0.13287359     0.15900
O811        O  0.81565444  0.94937437  0.13602399    -0.60100
H812        H  0.85105099  0.00142087  0.14290593     0.14400
H813        H  0.94265354  0.10486934  0.17294215     0.46200
H814        H  0.93491762  0.00125634  0.12278421     0.41600
H815        H  0.80857321  0.94428687  0.15252073     0.45000
H816        H  0.90633476  0.01535426  0.08999099     0.36500
C817        C  0.78362334  0.93641990  0.03590837    -0.27700
C818        C  0.78439375  0.92640997  0.01321381     0.01900
C819        C  0.78104976  0.90009433  0.01097783     0.30000
C820        C  0.77922207  0.88519240  0.03139512    -0.19500
C821        C  0.78045377  0.89611244  0.05411515    -0.28900
C822        C  0.78185577  0.92151738  0.05630513     0.44000
C823        C  0.79356287  0.94530945  0.99260861     0.05200
O824        O  0.78287718  0.89029491  0.98911359    -0.57400
H825        H  0.77924328  0.86617658  0.02949360     0.18100
O826        O  0.78377263  0.93294582  0.07831035    -0.64200
H827        H  0.78635168  0.95670957  0.03785051     0.16600
C828        C  0.77719889  0.93924372  0.97217850     0.28800
C829        C  0.78804940  0.95584778  0.95197011    -0.25100
C830        C  0.81528328  0.97872995  0.95172820    -0.24300
C831        C  0.83114785  0.98544378  0.97270795     0.40300
C832        C  0.82023399  0.96877233  0.99283643    -0.26800
O833        O  0.75086301  0.91674008  0.97157389    -0.58700
H834        H  0.77525499  0.95032343  0.93624617     0.15900
O835        O  0.85786388  0.00727250  0.97343589    -0.60100
H836        H  0.83310366  0.97357410  0.00844783     0.14400
H837        H  0.80383380  0.94484061  0.08146053     0.46200
H838        H  0.73902585  0.92349815  0.97775053     0.41600
H839        H  0.85660256  0.02314799  0.97918007     0.45000
H840        H  0.76358130  0.87656776  0.98459837     0.36500
C841        C  0.96831759  0.16762674  0.00046770    -0.27700
C842        C  0.94035765  0.14665813  0.99858041     0.01900
C843        C  0.92565445  0.13322095  0.01943953     0.30000
C844        C  0.93924526  0.13985653  0.04134221    -0.19500
C845        C  0.96760281  0.15908922  0.04278530    -0.28900
C846        C  0.98202007  0.17365615  0.02231774     0.44000
C847        C  0.92846724  0.13542684  0.97474752     0.05200
O848        O  0.89901292  0.11127929  0.01825553    -0.57400
H849        H  0.92800335  0.12823237  0.05693715     0.18100
O850        O  0.00973214  0.19285956  0.02329114    -0.64200
H851        H  0.97997543  0.17823612  0.98468816     0.16600
C852        C  0.90156292  0.12847877  0.96833250     0.28800
C853        C  0.88917940  0.11250268  0.94784011    -0.25100
C854        C  0.90341923  0.10348828  0.93370884    -0.24300
C855        C  0.93128080  0.11304689  0.93872662     0.40300
C856        C  0.94351952  0.12876343  0.95911035    -0.26800
O857        O  0.88747144  0.13738283  0.98191012    -0.58700
H858        H  0.86798867  0.10595616  0.94374357     0.15900
O859        O  0.94664645  0.10690067  0.92385458    -0.60100
H860        H  0.96442073  0.13437518  0.96335608     0.14400
H861        H  0.01102535  0.21091556  0.02480197     0.46200
H862        H  0.86986463  0.12057803  0.98651143     0.41600
H863        H  0.94813806  0.09230418  0.93206815     0.45000
H864        H  0.88773996  0.11728958  0.02696267     0.36500
C865        C  0.14026560  0.17591205  0.99991177    -0.27700
C866        C  0.13557672  0.19779357  0.99837054     0.01900
C867        C  0.14234146  0.21312685  0.97724670     0.30000
C868        C  0.15220466  0.20547332  0.95758163    -0.19500
C869        C  0.15504097  0.18227268  0.95850502    -0.28900
C870        C  0.14977245  0.16799647  0.98025945     0.44000
C871        C  0.12115364  0.20233649  0.01824306     0.05200
O872        O  0.13932744  0.23555871  0.97572850    -0.57400
H873        H  0.15643208  0.21704424  0.94125106     0.18100
O874        O  0.15293816  0.14571340  0.98239464    -0.64200
H875        H  0.13517746  0.16395680  0.01611161     0.16600
C876        C  0.09466559  0.19819697  0.01483226     0.28800
C877        C  0.07892720  0.19708858  0.03446449    -0.25100
C878        C  0.08908508  0.19981223  0.05762441    -0.24300
C879        C  0.11596257  0.20522155  0.06105229     0.40300
C880        C  0.13184511  0.20646175  0.04139605    -0.26800
O881        O  0.08306362  0.19289585  0.99261115    -0.58700
H882        H  0.05790832  0.19203024  0.03170319     0.15900
O883        O  0.12571345  0.20640089  0.08355533    -0.60100
H884        H  0.15194396  0.20909521  0.04429878     0.14400
H885        H  0.13411631  0.12925786  0.98063065     0.46200
H886        H  0.07323125  0.17255576  0.99071977     0.41600
H887        H  0.13681461  0.22633956  0.08751186     0.45000
H888        H  0.12399131  0.23015604  0.96437754     0.36500
C889        C  0.98715551  0.11525179  0.85150331    -0.27700
C890        C  0.00061613  0.10172564  0.85884773     0.01900
C891        C  0.98508821  0.07335268  0.86384756     0.30000
C892        C  0.95632723  0.05936473  0.86358847    -0.19500
C893        C  0.94254084  0.07338989  0.85856245    -0.28900
C894        C  0.95824653  0.10121969  0.85112153     0.44000
C895        C  0.03026716  0.11757359  0.86463771     0.05200
O896        O  0.99786203  0.05962699  0.87089306    -0.57400
H897        H  0.94491999  0.03796899  0.86908044     0.18100
O898        O  0.94570364  0.11546360  0.84505082    -0.64200
H899        H  0.99901559  0.13707336  0.84741425     0.16600
C900        C  0.05071522  0.12642904  0.84696296     0.28800
C901        C  0.07839733  0.13751559  0.85349400    -0.25100
C902        C  0.08576528  0.13943419  0.87759725    -0.24300
C903        C  0.06527454  0.13209643  0.89520116     0.40300
C904        C  0.03785690  0.12124733  0.88862618    -0.26800
O905        O  0.04368977  0.12313472  0.82336373    -0.58700
H906        H  0.09378626  0.14301100  0.83971166     0.15900
O907        O  0.07155521  0.13422717  0.91894865    -0.60100
H908        H  0.02220167  0.11459911  0.90234877     0.14400
H909        H  0.94324778  0.11325248  0.82756464     0.46200
H910        H  0.03825462  0.10385874  0.81943027     0.41600
H911        H  0.07887540  0.15385035  0.92312617     0.45000
H912        H  0.00452752  0.05555901  0.85600769     0.36500
C913        C  0.92789585  0.87231459  0.14787638    -0.27700
C914        C  0.94622264  0.88032749  0.12850742     0.01900
C915        C  0.93582117  0.87575214  0.10527935     0.30000
C916        C  0.90777097  0.86481058  0.10152572    -0.19500
C917        C  0.88947666  0.85859873  0.12069861    -0.28900
C918        C  0.89949826  0.86131307  0.14407755     0.44000
C919        C  0.97643804  0.89486601  0.13187044     0.05200
O920        O  0.95316647  0.88263975  0.08606456    -0.57400
H921        H  0.90051108  0.86237604  0.08336385     0.18100
O922        O  0.88228481  0.85533339  0.16323362    -0.64200
H923        H  0.93575121  0.87555370  0.16586757     0.16600
C924        C  0.99263600  0.92365614  0.12899012     0.28800
C925        C  0.02134344  0.93668398  0.12639783    -0.25100
C926        C  0.03437011  0.92128904  0.12647593    -0.24300
C927        C  0.01805971  0.89254091  0.13081913     0.40300
C928        C  0.98937067  0.87961503  0.13330329    -0.26800
O929        O  0.98038191  0.93904337  0.12775032    -0.58700
H930        H  0.03325459  0.95873476  0.12333146     0.15900
O931        O  0.02953375  0.87641865  0.13082824    -0.60100
H932        H  0.97702277  0.85736983  0.13503920     0.14400
H933        H  0.87397382  0.83528350  0.16594508     0.46200
H934        H  0.97859120  0.94144231  0.11053099     0.41600
H935        H  0.03354381  0.87516257  0.14776234     0.45000
H936        H  0.95682798  0.90091296  0.08082281     0.36500
C937        C  0.20273130  0.09486277  0.98076804    -0.27700
C938        C  0.19839403  0.06850901  0.97614034     0.01900
C939        C  0.19647525  0.05971136  0.95233053     0.30000
C940        C  0.19588443  0.07582774  0.93386911    -0.19500
C941        C  0.19761347  0.10089845  0.93884755    -0.28900
C942        C  0.20235341  0.11102973  0.96227469     0.44000
C943        C  0.19038721  0.04872310  0.99609270     0.05200
O944        O  0.19279145  0.03436764  0.94710150    -0.57400
H945        H  0.19185854  0.06771754  0.91587667     0.18100
O946        O  0.20369441  0.13533581  0.96755115    -0.64200
H947        H  0.20387154  0.10190010  0.99890493     0.16600
C948        C  0.20588144  0.05570013  0.01719155     0.28800
C949        C  0.19484200  0.03886821  0.03732272    -0.25100
C950        C  0.16822756  0.01505122  0.03687532    -0.24300
C951        C  0.15365137  0.00714177  0.01515590     0.40300
C952        C  0.16466385  0.02401490  0.99516612    -0.26800
O953        O  0.23170096  0.07901368  0.01829396    -0.58700
H954        H  0.20678209  0.04511560  0.05358577     0.15900
O955        O  0.12772835  0.98408547  0.01361943    -0.60100
H956        H  0.15221185  0.01848296  0.97921826     0.14400
H957        H  0.22316594  0.14996219  0.96458146     0.46200
H958        H  0.22982099  0.09200622  0.02886748     0.41600
H959        H  0.13028444  0.97005282  0.00537066     0.45000
H960        H  0.21163609  0.03739061  0.94665115     0.36500
C961        C  0.11268192  0.07683018  0.10687268    -0.27700
C962        C  0.09982820  0.07464212  0.12878534     0.01900
C963        C  0.09923141  0.05654549  0.14612705     0.30000
C964        C  0.11094595  0.04048657  0.14118270    -0.19500
C965        C  0.12278463  0.04190740  0.11884597    -0.28900
C966        C  0.12378901  0.06042467  0.10172820     0.44000
C967        C  0.08620041  0.09064274  0.13249246     0.05200
O968        O  0.08648894  0.05378189  0.16758328    -0.57400
H969        H  0.10940891  0.02582314  0.15428781     0.18100
O970        O  0.13540467  0.06240669  0.07980218    -0.64200
H971        H  0.11318113  0.09060129  0.09333782     0.16600
C972        C  0.10178799  0.11962256  0.13220409     0.28800
C973        C  0.08853038  0.13461151  0.13138252    -0.25100
C974        C  0.05959736  0.12107717  0.13013023    -0.24300
C975        C  0.04393992  0.09197237  0.13180306     0.40300
C976        C  0.05729996  0.07701739  0.13303751    -0.26800
O977        O  0.13007568  0.13343359  0.13204874    -0.58700
H978        H  0.10110310  0.15689030  0.13020747     0.15900
O979        O  0.01566208  0.07781869  0.13101917    -0.60100
H980        H  0.04507301  0.05466652  0.13310500     0.14400
H981        H  0.11964955  0.05169767  0.06885553     0.46200
H982        H  0.13550608  0.13840768  0.11519558     0.41600
H983        H  0.00971813  0.07775707  0.14764435     0.45000
H984        H  0.10129988  0.06707560  0.17835059     0.36500
C985        C  0.83778997  0.78539653  0.95716374    -0.27700
C986        C  0.84731560  0.78771565  0.98052979     0.01900
C987        C  0.87019085  0.78505326  0.98492129     0.30000
C988        C  0.88496428  0.78311449  0.96586923    -0.19500
C989        C  0.87737624  0.78407505  0.94229514    -0.28900
C990        C  0.85237713  0.78304259  0.93805915     0.44000
C991        C  0.83584982  0.79652493  0.99985858     0.05200
O992        O  0.87964703  0.78670836  0.00764803    -0.57400
H993        H  0.90382915  0.78337086  0.96953943     0.18100
O994        O  0.84362140  0.78282723  0.91534059    -0.64200
H995        H  0.81991680  0.78700068  0.95365977     0.16600
C996        C  0.84016861  0.82330531  0.99988762     0.28800
C997        C  0.83273242  0.83295819  0.01977291    -0.25100
C998        C  0.82123032  0.81631203  0.03999268    -0.24300
C999        C  0.81589757  0.78902728  0.03945163     0.40300
C1000       C  0.82331392  0.77942083  0.01952179    -0.26800
O1001       O  0.85378325  0.84097879  0.98140014    -0.58700
H1002       H  0.83737756  0.85405524  0.01980440     0.15900
O1003       O  0.80447853  0.77188055  0.05863339    -0.60100
H1004       H  0.82006388  0.75883499  0.01969161     0.14400
H1005       H  0.83240300  0.76305180  0.91087232     0.46200
H1006       H  0.83905597  0.83929600  0.97081057     0.41600
H1007       H  0.78424617  0.76286288  0.05648745     0.45000
H1008       H  0.89297557  0.80662590  0.01047882     0.36500
C1009       C  0.86404552  0.87233643  0.88298600    -0.27700
C1010       C  0.86909125  0.88676013  0.86157177     0.01900
C1011       C  0.88493561  0.88355585  0.84383193     0.30000
C1012       C  0.89667023  0.86742943  0.84818508    -0.19500
C1013       C  0.89314713  0.85462250  0.87028212    -0.28900
C1014       C  0.87594118  0.85651555  0.88745145     0.44000
C1015       C  0.86104474  0.90786354  0.85954303     0.05200
O1016       O  0.89000849  0.89703780  0.82255201    -0.57400
H1017       H  0.90966864  0.86610824  0.83472884     0.18100
O1018       O  0.87071163  0.84304717  0.90878895    -0.64200
H1019       H  0.85210607  0.87457173  0.89693188     0.16600
C1020       C  0.83395609  0.90165690  0.86446358     0.28800
C1021       C  0.82832952  0.92304702  0.86642810    -0.25100
C1022       C  0.84960335  0.95072615  0.86406334    -0.24300
C1023       C  0.87629361  0.95671319  0.85806273     0.40300
C1024       C  0.88179270  0.93546209  0.85572184    -0.26800
O1025       O  0.81304315  0.87482518  0.86779758    -0.58700
H1026       H  0.80778486  0.91811573  0.87138743     0.15900
O1027       O  0.89765068  0.98353713  0.85602596    -0.60100
H1028       H  0.90281954  0.94077984  0.85237522     0.14400
H1029       H  0.88277201  0.85739561  0.92051001     0.46200
H1030       H  0.80893123  0.87314105  0.88508103     0.41600
H1031       H  0.89790078  0.98821725  0.83902767     0.45000
H1032       H  0.87494342  0.88389329  0.81189240     0.36500
C1033       C  0.01137257  0.84294758  0.99624153    -0.27700
C1034       C  0.03755007  0.84617346  0.99461285     0.01900
C1035       C  0.04560947  0.83940975  0.97314488     0.30000
C1036       C  0.02798842  0.83080740  0.95331890    -0.19500
C1037       C  0.00275400  0.82980427  0.95450250    -0.28900
C1038       C  0.99412154  0.83503608  0.97639785     0.44000
C1039       C  0.05728067  0.86057344  0.01430338     0.05200
O1040       O  0.07092630  0.84190223  0.97126769    -0.57400
H1041       H  0.03493519  0.82689427  0.93659735     0.18100
O1042       O  0.96947489  0.83399517  0.97820847    -0.64200
H1043       H  0.00499255  0.84829362  0.01257893     0.16600
C1044       C  0.07927421  0.88790657  0.01111631     0.28800
C1045       C  0.09383215  0.90393491  0.03082470    -0.25100
C1046       C  0.08669665  0.89324262  0.05390328    -0.24300
C1047       C  0.06598236  0.86541667  0.05706751     0.40300
C1048       C  0.05127870  0.84927460  0.03729920    -0.26800
O1049       O  0.08504722  0.89993663  0.98907893    -0.58700
H1050       H  0.10935815  0.92550020  0.02824820     0.15900
O1051       O  0.05792279  0.85474816  0.07947878    -0.60100
H1052       H  0.03405084  0.82846525  0.04004471     0.14400
H1053       H  0.95615269  0.81525494  0.98425879     0.46200
H1054       H  0.07358363  0.90840228  0.98781480     0.41600
H1055       H  0.07199157  0.85055616  0.08476935     0.45000
H1056       H  0.08233900  0.85860530  0.96150600     0.36500
C1057       C  0.05910579  0.94348880  0.86155634    -0.27700
C1058       C  0.05773026  0.96375648  0.87492052     0.01900
C1059       C  0.03705961  0.95560787  0.89236202     0.30000
C1060       C  0.01762147  0.92775783  0.89565707    -0.19500
C1061       C  0.01876585  0.90746018  0.88226129    -0.28900
C1062       C  0.03980343  0.91540125  0.86520325     0.44000
C1063       C  0.07766177  0.99343840  0.87089069     0.05200
O1064       O  0.03582881  0.97476718  0.90645942    -0.57400
H1065       H  0.00180103  0.92198312  0.90909659     0.18100
O1066       O  0.04131280  0.89600912  0.85170331    -0.64200
H1067       H  0.07486591  0.94946657  0.84804730     0.16600
C1068       C  0.10623000  0.00468000  0.87333603     0.28800
C1069       C  0.12417053  0.03335880  0.87341980    -0.25100
C1070       C  0.11391319  0.05109396  0.87129644    -0.24300
C1071       C  0.08551256  0.03969616  0.86715394     0.40300
C1072       C  0.06770196  0.01110417  0.86685061    -0.26800
O1073       O  0.11649469  0.98797260  0.87786896    -0.58700
H1074       H  0.14588544  0.04168126  0.87683408     0.15900
O1075       O  0.07470066  0.05626643  0.86465296    -0.60100
H1076       H  0.04578479  0.00267445  0.86453112     0.14400
H1077       H  0.02909751  0.89250837  0.83788219     0.46200
H1078       H  0.12413889  0.98632007  0.86249593     0.41600
H1079       H  0.07531570  0.05975396  0.84734205     0.45000
H1080       H  0.04650829  0.97634837  0.92091717     0.36500
C1081       C  0.97150857  0.80219952  0.71739560    -0.27700
C1082       C  0.98815741  0.82306365  0.73372411     0.01900
C1083       C  0.01244835  0.84675017  0.72541295     0.30000
C1084       C  0.01957153  0.84926754  0.70125500    -0.19500
C1085       C  0.00237471  0.82879913  0.68487186    -0.28900
C1086       C  0.97826496  0.80500464  0.69320920     0.44000
C1087       C  0.98022719  0.81976450  0.75934596     0.05200
O1088       O  0.02895128  0.86799451  0.74060703    -0.57400
H1089       H  0.03791634  0.86788531  0.69516042     0.18100
O1090       O  0.96092669  0.78442043  0.67781541    -0.64200
H1091       H  0.95311301  0.78358306  0.72339826     0.16600
C1092       C  0.95320423  0.81167915  0.76674749     0.28800
C1093       C  0.94645243  0.80872388  0.79104026    -0.25100
C1094       C  0.96643537  0.81419576  0.80837610    -0.24300
C1095       C  0.99333054  0.82189189  0.80085631     0.40300
C1096       C  0.99991642  0.82450836  0.77666487    -0.26800
O1097       O  0.93331071  0.80703437  0.75045026    -0.58700
H1098       H  0.92570241  0.80278346  0.79633120     0.15900
O1099       O  0.01345112  0.82675242  0.81698516    -0.60100
H1100       H  0.02056397  0.83003597  0.77142026     0.14400
H1101       H  0.96860317  0.77226910  0.67629627     0.46200
H1102       H  0.93713755  0.82561320  0.74604916     0.41600
H1103       H  0.01169264  0.80859712  0.81939374     0.45000
H1104       H  0.02083875  0.87981670  0.74108012     0.36500
C1105       C  0.83849865  0.83603035  0.26761980    -0.27700
C1106       C  0.81109461  0.82498754  0.26025632     0.01900
C1107       C  0.78961155  0.80999958  0.27666776     0.30000
C1108       C  0.79566665  0.80654900  0.30004041    -0.19500
C1109       C  0.82310352  0.81776258  0.30757473    -0.28900
C1110       C  0.84461095  0.83254942  0.29100851     0.44000
C1111       C  0.80509596  0.82861101  0.23529103     0.05200
O1112       O  0.76258976  0.79882340  0.27009220    -0.57400
H1113       H  0.77874024  0.79510583  0.31234940     0.18100
O1114       O  0.87169623  0.84398408  0.29747691    -0.64200
H1115       H  0.85525570  0.84730278  0.25512346     0.16600
C1116       C  0.81603514  0.85504540  0.22536168     0.28800
C1117       C  0.81085562  0.85784029  0.20146978    -0.25100
C1118       C  0.79524273  0.83448880  0.18696184    -0.24300
C1119       C  0.78373748  0.80804076  0.19718339     0.40300
C1120       C  0.78868681  0.80530897  0.22108673    -0.26800
O1121       O  0.83140269  0.87824468  0.23901018    -0.58700
H1122       H  0.81985978  0.87836515  0.19409794     0.15900
O1123       O  0.76790307  0.78463081  0.18392218    -0.60100
H1124       H  0.78011295  0.78483081  0.22845243     0.14400
H1125       H  0.87753759  0.86277595  0.30336486     0.46200
H1126       H  0.85084096  0.88543564  0.23432266     0.41600
H1127       H  0.74875777  0.78066351  0.18552450     0.45000
H1128       H  0.75861937  0.81372619  0.27271541     0.36500
C1129       C  0.93486561  0.80793057  0.45474578    -0.27700
C1130       C  0.91809761  0.79197839  0.47367575     0.01900
C1131       C  0.88922583  0.77646307  0.47069135     0.30000
C1132       C  0.87741146  0.77896706  0.44975810    -0.19500
C1133       C  0.89417299  0.79720731  0.43190790    -0.28900
C1134       C  0.92307996  0.81074157  0.43400502     0.44000
C1135       C  0.93040022  0.79688291  0.49765649     0.05200
O1136       O  0.87236583  0.76093858  0.48903199    -0.57400
H1137       H  0.85516085  0.76874812  0.44848379     0.18100
O1138       O  0.93992120  0.82881736  0.41682261    -0.64200
H1139       H  0.95705897  0.82029021  0.45689961     0.16600
C1140       C  0.95147677  0.79169084  0.50317936     0.28800
C1141       C  0.96501648  0.80023133  0.52522157    -0.25100
C1142       C  0.95831864  0.81478612  0.54145191    -0.24300
C1143       C  0.93676387  0.81928971  0.53603720     0.40300
C1144       C  0.92299023  0.81029957  0.51437778    -0.26800
O1145       O  0.95899734  0.77846593  0.48713461    -0.58700
H1146       H  0.98157028  0.79664390  0.52914904     0.15900
O1147       O  0.92942594  0.83309500  0.55162211    -0.60100
H1148       H  0.90714376  0.81485882  0.51020815     0.14400
H1149       H  0.94427567  0.81772289  0.40601101     0.46200
H1150       H  0.97573097  0.79335610  0.47912251     0.41600
H1151       H  0.91242866  0.81852296  0.55951121     0.45000
H1152       H  0.87020482  0.74254417  0.48707774     0.36500
C1153       C  0.80000755  0.00480264  0.71761436    -0.27700
C1154       C  0.81445631  0.99725731  0.73269527     0.01900
C1155       C  0.82396395  0.98034805  0.72408948     0.30000
C1156       C  0.81929541  0.97152583  0.70034438    -0.19500
C1157       C  0.80549096  0.97974489  0.68487560    -0.28900
C1158       C  0.79565184  0.99640510  0.69384161     0.44000
C1159       C  0.81894405  0.00677869  0.75755486     0.05200
O1160       O  0.83720086  0.97182782  0.73891960    -0.57400
H1161       H  0.82696818  0.95869739  0.69393982     0.18100
O1162       O  0.78122982  0.00416445  0.67969704    -0.64200
H1163       H  0.79232702  0.01754017  0.72426594     0.16600
C1164       C  0.84529802  0.02690610  0.76566186     0.28800
C1165       C  0.84919334  0.03484008  0.78959454    -0.25100
C1166       C  0.82691512  0.02299908  0.80568366    -0.24300
C1167       C  0.80020258  0.00395146  0.79703630     0.40300
C1168       C  0.79646610  0.99592842  0.77316154    -0.26800
O1169       O  0.86739897  0.03860457  0.75039496    -0.58700
H1170       H  0.86984222  0.04974180  0.79565027     0.15900
O1171       O  0.77764459  0.99250183  0.81179001    -0.60100
H1172       H  0.77598975  0.98082805  0.76685822     0.14400
H1173       H  0.79475896  0.02345056  0.67497866     0.46200
H1174       H  0.86752899  0.05470246  0.74347081     0.41600
H1175       H  0.77067299  0.00531120  0.81127625     0.45000
H1176       H  0.85714644  0.98526686  0.73656391     0.36500
C1177       C  0.77754223  0.87960820  0.51606034    -0.27700
C1178       C  0.78539332  0.86012045  0.51968969     0.01900
C1179       C  0.78909009  0.85395848  0.54313012     0.30000
C1180       C  0.78772068  0.86915217  0.56217688    -0.19500
C1181       C  0.78228888  0.89022979  0.55820413    -0.28900
C1182       C  0.77606399  0.89469133  0.53516395     0.44000
C1183       C  0.79353901  0.84962164  0.49893050     0.05200
O1184       O  0.79614583  0.83464166  0.54744211    -0.57400
H1185       H  0.79322291  0.86607111  0.57982929     0.18100
O1186       O  0.77099164  0.91545234  0.53091546    -0.64200
H1187       H  0.77486738  0.88489204  0.49821009     0.16600
C1188       C  0.77684919  0.83941101  0.47853836     0.28800
C1189       C  0.78686106  0.83359498  0.45795876    -0.25100
C1190       C  0.81358901  0.83782398  0.45717364    -0.24300
C1191       C  0.82988565  0.84701235  0.47794264     0.40300
C1192       C  0.81978998  0.85275289  0.49853187    -0.26800
O1193       O  0.75107592  0.83597279  0.47824076    -0.58700
H1194       H  0.77387076  0.82651060  0.44230635     0.15900
O1195       O  0.85619056  0.85176662  0.47808240    -0.60100
H1196       H  0.83321263  0.86114347  0.51385769     0.14400
H1197       H  0.78905110  0.93163602  0.52622951     0.46200
H1198       H  0.73858464  0.81724709  0.48472822     0.41600
H1199       H  0.86831872  0.87159136  0.47417027     0.45000
H1200       H  0.77841291  0.81674100  0.54787534     0.36500
C1201       C  0.86624157  0.88716470  0.64293916    -0.27700
C1202       C  0.89288339  0.89883861  0.63350395     0.01900
C1203       C  0.90480379  0.92425766  0.62154680     0.30000
C1204       C  0.88986579  0.93731486  0.61863965    -0.19500
C1205       C  0.86280433  0.92535251  0.62735392    -0.28900
C1206       C  0.85119665  0.90024256  0.64002764     0.44000
C1207       C  0.90802342  0.88414785  0.63500222     0.05200
O1208       O  0.93034817  0.93549225  0.61115012    -0.57400
H1209       H  0.89917459  0.95630472  0.60855921     0.18100
O1210       O  0.82520474  0.88826391  0.64960761    -0.64200
H1211       H  0.85697012  0.86770206  0.65230994     0.16600
C1212       C  0.93425362  0.89710392  0.64554131     0.28800
C1213       C  0.95151435  0.88683967  0.64139719    -0.25100
C1214       C  0.94288675  0.86340939  0.62702851    -0.24300
C1215       C  0.91534015  0.84834458  0.61912815     0.40300
C1216       C  0.89810396  0.85893976  0.62295752    -0.26800
O1217       O  0.94398984  0.92104228  0.65836141    -0.58700
H1218       H  0.97237821  0.89821750  0.64826124     0.15900
O1219       O  0.90597721  0.82495658  0.60563201    -0.60100
H1220       H  0.87774166  0.84855060  0.61504260     0.14400
H1221       H  0.81303245  0.87351367  0.63821384     0.46200
H1222       H  0.93705235  0.91501764  0.67476481     0.41600
H1223       H  0.89757011  0.80952245  0.61715887     0.45000
H1224       H  0.94280473  0.95192464  0.62093439     0.36500
C1225       C  0.18145213  0.00303567  0.21817593    -0.27700
C1226       C  0.15958752  0.99756945  0.23349534     0.01900
C1227       C  0.13234002  0.98195615  0.22469504     0.30000
C1228       C  0.12744398  0.97266468  0.20097023    -0.19500
C1229       C  0.14939983  0.97863449  0.18551683    -0.28900
C1230       C  0.17660140  0.99358728  0.19458404     0.44000
C1231       C  0.16548382  0.00836896  0.25847020     0.05200
O1232       O  0.11027898  0.97579387  0.23906399    -0.57400
H1233       H  0.10640918  0.96130595  0.19450459     0.18100
O1234       O  0.19877434  0.99941346  0.18048837    -0.64200
H1235       H  0.20254901  0.01513080  0.22439273     0.16600
C1236       C  0.18264097  0.00389848  0.27346938     0.28800
C1237       C  0.18732112  0.01359658  0.29702717    -0.25100
C1238       C  0.17553144  0.02829448  0.30613559    -0.24300
C1239       C  0.15878825  0.03324083  0.29099423     0.40300
C1240       C  0.15390343  0.02331564  0.26747691    -0.26800
O1241       O  0.19371020  0.98872480  0.26567999    -0.58700
H1242       H  0.20000640  0.00924281  0.30832168     0.15900
O1243       O  0.14572783  0.04628628  0.29935972    -0.60100
H1244       H  0.14085568  0.02722520  0.25624494     0.14400
H1245       H  0.20173961  0.98383450  0.18292229     0.46200
H1246       H  0.21373309  0.00221227  0.26367507     0.41600
H1247       H  0.15772390  0.06584418  0.29458846     0.45000
H1248       H  0.10749239  0.96020222  0.24905338     0.36500
C1249       C  0.09241045  0.90740636  0.50824336    -0.27700
C1250       C  0.11664698  0.93279646  0.51276767     0.01900
C1251       C  0.12499429  0.94082616  0.53648466     0.30000
C1252       C  0.10809168  0.92460364  0.55521582    -0.19500
C1253       C  0.08263184  0.90045105  0.55059915    -0.28900
C1254       C  0.07538000  0.89132690  0.52691596     0.44000
C1255       C  0.13030257  0.95228150  0.49282420     0.05200
O1256       O  0.14875332  0.96533826  0.54151662    -0.57400
H1257       H  0.11399530  0.93198082  0.57330136     0.18100
O1258       O  0.05126633  0.86711614  0.52182655    -0.64200
H1259       H  0.08558001  0.90091301  0.49013915     0.16600
C1260       C  0.13767737  0.94418257  0.47175581     0.28800
C1261       C  0.14527289  0.96096186  0.45155957    -0.25100
C1262       C  0.14535490  0.98581077  0.45191929    -0.24300
C1263       C  0.14018623  0.99490868  0.47369365     0.40300
C1264       C  0.13248673  0.97806237  0.49376610    -0.26800
O1265       O  0.13725125  0.91978532  0.47074166    -0.58700
H1266       H  0.14995586  0.95384527  0.43531126     0.15900
O1267       O  0.14096245  0.01943410  0.47533778    -0.60100
H1268       H  0.12674097  0.98456535  0.50980612     0.14400
H1269       H  0.03824100  0.87266151  0.51641384     0.46200
H1270       H  0.12137216  0.90739207  0.46043855     0.41600
H1271       H  0.16030770  0.03335859  0.47958295     0.45000
H1272       H  0.16369228  0.96120698  0.54057589     0.36500
C1273       C  0.98057969  0.88126787  0.34503847    -0.27700
C1274       C  0.99600067  0.90823950  0.35386040     0.01900
C1275       C  0.98257150  0.92037594  0.36483746     0.30000
C1276       C  0.95402709  0.90510451  0.36785081    -0.19500
C1277       C  0.93849397  0.87739955  0.36043154    -0.28900
C1278       C  0.95191155  0.86587401  0.34802400     0.44000
C1279       C  0.02622502  0.92263322  0.35473399     0.05200
O1280       O  0.99741821  0.94668295  0.37389366    -0.57400
H1281       H  0.94434838  0.91454789  0.37735096     0.18100
O1282       O  0.93751279  0.83920667  0.33979686    -0.64200
H1283       H  0.99090787  0.87182176  0.33665271     0.16600
C1284       C  0.03888924  0.91758625  0.37382841     0.28800
C1285       C  0.06681416  0.93588109  0.37845541    -0.25100
C1286       C  0.08230889  0.95898864  0.36398883    -0.24300
C1287       C  0.07019709  0.96289641  0.34382836     0.40300
C1288       C  0.04209293  0.94481717  0.33940963    -0.26800
O1289       O  0.02365845  0.89598154  0.38902483    -0.58700
H1290       H  0.07598995  0.93298319  0.39417819     0.15900
O1291       O  0.08482415  0.98592845  0.32997114    -0.60100
H1292       H  0.03229658  0.94906867  0.32495846     0.14400
H1293       H  0.93084574  0.84032896  0.32382077     0.46200
H1294       H  0.01674551  0.90337711  0.40147109     0.41600
H1295       H  0.09593508  0.98165266  0.31912309     0.45000
H1296       H  0.00249780  0.94458247  0.39026112     0.36500
C1297       C  0.13618255  0.17494858  0.73147591    -0.27700
C1298       C  0.15966812  0.17442760  0.73815004     0.01900
C1299       C  0.17957244  0.17883933  0.72103127     0.30000
C1300       C  0.17589880  0.18373511  0.69745636    -0.19500
C1301       C  0.15229694  0.18411915  0.69044129    -0.28900
C1302       C  0.13219483  0.17940979  0.70773483     0.44000
C1303       C  0.16373803  0.17000044  0.76316373     0.05200
O1304       O  0.20256655  0.17813256  0.72716996    -0.57400
H1305       H  0.19152426  0.18686683  0.68458077     0.18100
O1306       O  0.10877022  0.17935917  0.70176903    -0.64200
H1307       H  0.12081620  0.17165360  0.74469849     0.16600
C1308       C  0.17378119  0.19183646  0.77953490     0.28800
C1309       C  0.17851097  0.18773463  0.80305499    -0.25100
C1310       C  0.17283603  0.16173202  0.81082130    -0.24300
C1311       C  0.16230269  0.13967752  0.79429430     0.40300
C1312       C  0.15805973  0.14403498  0.77059602    -0.26800
O1313       O  0.17948388  0.21741395  0.77256941    -0.58700
H1314       H  0.18642635  0.20502353  0.81528310     0.15900
O1315       O  0.15523839  0.11364839  0.80118499    -0.60100
H1316       H  0.15009829  0.12706113  0.75801400     0.14400
H1317       H  0.09467137  0.15972598  0.69858533     0.46200
H1318       H  0.16228673  0.21745933  0.77570010     0.41600
H1319       H  0.17088196  0.11165428  0.79611543     0.45000
H1320       H  0.21701590  0.19760627  0.73045511     0.36500
C1321       C  0.19388026  0.13902341  0.52276318    -0.27700
C1322       C  0.19166997  0.15146455  0.50206466     0.01900
C1323       C  0.18386868  0.17129015  0.50406313     0.30000
C1324       C  0.17562441  0.17618603  0.52601799    -0.19500
C1325       C  0.17568884  0.16207568  0.54632548    -0.28900
C1326       C  0.18625174  0.14446962  0.54489027     0.44000
C1327       C  0.19145079  0.13944325  0.47855028     0.05200
O1328       O  0.18213427  0.18436099  0.48430669    -0.57400
H1329       H  0.16817148  0.19028082  0.52702797     0.18100
O1330       O  0.18636091  0.13021715  0.56446381    -0.64200
H1331       H  0.19936803  0.12340214  0.52157070     0.16600
C1332       C  0.21259804  0.13507944  0.47088077     0.28800
C1333       C  0.20922378  0.11997101  0.44988525    -0.25100
C1334       C  0.18469229  0.10883682  0.43672172    -0.24300
C1335       C  0.16442634  0.11483542  0.44382218     0.40300
C1336       C  0.16777129  0.12957923  0.46459258    -0.26800
O1337       O  0.23643332  0.14538843  0.48380935    -0.58700
H1338       H  0.22507671  0.11576106  0.44463845     0.15900
O1339       O  0.14045798  0.10521339  0.43118668    -0.60100
H1340       H  0.15106227  0.13228476  0.47034477     0.14400
H1341       H  0.20518292  0.14147454  0.57115560     0.46200
H1342       H  0.23519227  0.12918911  0.49168833     0.41600
H1343       H  0.14493355  0.11924117  0.41873409     0.45000
H1344       H  0.20127745  0.19969238  0.48125668     0.36500
C1345       C  0.94335309  0.07804026  0.60501535    -0.27700
C1346       C  0.95259079  0.07952717  0.62832115     0.01900
C1347       C  0.93346546  0.06484730  0.64648646     0.30000
C1348       C  0.90538859  0.04786189  0.64095127    -0.19500
C1349       C  0.89641104  0.04496224  0.61728923    -0.28900
C1350       C  0.91553446  0.06076565  0.59937201     0.44000
C1351       C  0.98250508  0.09570721  0.63272236     0.05200
O1352       O  0.94207430  0.06682133  0.66954247    -0.57400
H1353       H  0.89091513  0.03578948  0.65489856     0.18100
O1354       O  0.90717576  0.05938099  0.57627255    -0.64200
H1355       H  0.95796372  0.08960479  0.59097894     0.16600
C1356       C  0.99771767  0.08258731  0.63438995     0.28800
C1357       C  0.02657723  0.09822192  0.63309194    -0.25100
C1358       C  0.04055306  0.12697702  0.63000545    -0.24300
C1359       C  0.02510906  0.14012684  0.62977850     0.40300
C1360       C  0.99635262  0.12443795  0.63109121    -0.26800
O1361       O  0.98448839  0.05439405  0.63598090    -0.58700
H1362       H  0.03792478  0.08767772  0.63341227     0.15900
O1363       O  0.03767014  0.16811816  0.62681071    -0.60100
H1364       H  0.98471978  0.13461885  0.62952262     0.14400
H1365       H  0.91258664  0.04748228  0.56785499     0.46200
H1366       H  0.98287313  0.04776106  0.61938378     0.41600
H1367       H  0.03760531  0.17085723  0.60940179     0.45000
H1368       H  0.94464088  0.05096699  0.67171467     0.36500
C1369       C  0.09719479  0.05043280  0.65213934    -0.27700
C1370       C  0.10566397  0.03570729  0.63787975     0.01900
C1371       C  0.12601515  0.05001460  0.62035981     0.30000
C1372       C  0.13645519  0.07817537  0.61648419    -0.19500
C1373       C  0.12736145  0.09265964  0.63021130    -0.28900
C1374       C  0.10802102  0.07875085  0.64848683     0.44000
C1375       C  0.09055417  0.00501737  0.63891496     0.05200
O1376       O  0.13385555  0.03606218  0.60544991    -0.57400
H1377       H  0.15074974  0.08844225  0.60193601     0.18100
O1378       O  0.09833218  0.09224199  0.66187881    -0.64200
H1379       H  0.08131111  0.03967476  0.66546884     0.16600
C1380       C  0.10392072  0.99063455  0.64452359     0.28800
C1381       C  0.08994351  0.96173405  0.64180148    -0.25100
C1382       C  0.06291757  0.94705299  0.63287770    -0.24300
C1383       C  0.04911053  0.96131480  0.62866277     0.40300
C1384       C  0.06283846  0.98996911  0.63181840    -0.26800
O1385       O  0.13073062  0.00475203  0.65229926    -0.58700
H1386       H  0.10088268  0.95111415  0.64507519     0.15900
O1387       O  0.02258253  0.94754991  0.62019670    -0.60100
H1388       H  0.05223634  0.00067466  0.62744604     0.14400
H1389       H  0.08251710  0.09042811  0.65280309     0.46200
H1390       H  0.14174013  0.00355764  0.63911008     0.41600
H1391       H  0.01077862  0.94393667  0.63439026     0.45000
H1392       H  0.15304563  0.04214491  0.61009107     0.36500
C1393       C  0.98979491  0.19630218  0.22342434    -0.27700
C1394       C  0.99506397  0.18015096  0.23868834     0.01900
C1395       C  0.00826993  0.16677375  0.22967268     0.30000
C1396       C  0.01546769  0.16906934  0.20552516    -0.19500
C1397       C  0.00962030  0.18464719  0.18996650    -0.28900
C1398       C  0.99704864  0.19872780  0.19927780     0.44000
C1399       C  0.98666644  0.17712616  0.26402939     0.05200
O1400       O  0.01327685  0.15055150  0.24421635    -0.57400
H1401       H  0.02491673  0.15795234  0.19883785     0.18100
O1402       O  0.99156561  0.21477968  0.18494155    -0.64200
H1403       H  0.97990564  0.20694831  0.23023949     0.16600
C1404       C  0.00568215  0.19370789  0.28163316     0.28800
C1405       C  0.99792357  0.18957302  0.30565800    -0.25100
C1406       C  0.97129179  0.16861198  0.31268159    -0.24300
C1407       C  0.95213792  0.15220559  0.29488768     0.40300
C1408       C  0.95985226  0.15669615  0.27078510    -0.26800
O1409       O  0.03190679  0.21408542  0.27549060    -0.58700
H1410       H  0.01308259  0.20246694  0.31888817     0.15900
O1411       O  0.92567337  0.13218526  0.30076491    -0.60100
H1412       H  0.94499079  0.14388509  0.25732959     0.14400
H1413       H  0.00830820  0.23350175  0.18578854     0.46200
H1414       H  0.04309440  0.20528465  0.27618495     0.41600
H1415       H  0.92568196  0.11470620  0.30094876     0.45000
H1416       H  0.03305925  0.16207963  0.24849168     0.36500
C1417       C  0.82126491  0.04926907  0.51439790    -0.27700
C1418       C  0.83282323  0.04395496  0.49452010     0.01900
C1419       C  0.83592483  0.02088843  0.49467846     0.30000
C1420       C  0.82988428  0.00505366  0.51530445    -0.19500
C1421       C  0.82070351  0.01187877  0.53600216    -0.28900
C1422       C  0.81484777  0.03320329  0.53493379     0.44000
C1423       C  0.84684929  0.06534289  0.47602827     0.05200
O1424       O  0.84778202  0.01555386  0.47572057    -0.57400
H1425       H  0.83428445  0.98862171  0.51554134     0.18100
O1426       O  0.80432235  0.03956902  0.55425235    -0.64200
H1427       H  0.81863520  0.06686829  0.51443295     0.16600
C1428       C  0.84030124  0.05958018  0.45173987     0.28800
C1429       C  0.85849513  0.07777760  0.43446912    -0.25100
C1430       C  0.88319926  0.10167113  0.44124952    -0.24300
C1431       C  0.88847607  0.10849616  0.46547801     0.40300
C1432       C  0.87024771  0.09050068  0.48267968    -0.26800
O1433       O  0.81738762  0.03528949  0.44473244    -0.58700
H1434       H  0.85446832  0.07206652  0.41585319     0.15900
O1435       O  0.91276240  0.13135470  0.47253243    -0.60100
H1436       H  0.87563983  0.09512672  0.50129685     0.14400
H1437       H  0.78411961  0.02631972  0.55361095     0.46200
H1438       H  0.80206354  0.03887888  0.44529711     0.41600
H1439       H  0.90806436  0.14556284  0.47605998     0.45000
H1440       H  0.83221758  0.99998113  0.46709577     0.36500
C1441       C  0.01761701  0.18691561  0.50355218    -0.27700
C1442       C  0.04556211  0.20741592  0.50147282     0.01900
C1443       C  0.05546581  0.22135007  0.47976398     0.30000
C1444       C  0.03818124  0.21280442  0.45983890    -0.19500
C1445       C  0.01085224  0.19023853  0.46118290    -0.28900
C1446       C  0.00021513  0.17840714  0.48370105     0.44000
C1447       C  0.06489260  0.20966067  0.52015316     0.05200
O1448       O  0.08257133  0.24197287  0.47741266    -0.57400
H1449       H  0.04681129  0.22275386  0.44296840     0.18100
O1450       O  0.97341737  0.15720684  0.48627933    -0.64200
H1451       H  0.00973198  0.17605890  0.52022063     0.16600
C1452       C  0.06475330  0.21941323  0.54321237     0.28800
C1453       C  0.07964008  0.21620842  0.56152311    -0.25100
C1454       C  0.09430014  0.20291044  0.55703069    -0.24300
C1455       C  0.09556840  0.19460654  0.53365409     0.40300
C1456       C  0.08112257  0.19818301  0.51543449    -0.26800
O1457       O  0.04902753  0.23071900  0.54825780    -0.58700
H1458       H  0.07821864  0.22239571  0.57947897     0.15900
O1459       O  0.10964958  0.18150992  0.52871036    -0.60100
H1460       H  0.08124394  0.19041673  0.49780257     0.14400
H1461       H  0.96320334  0.16619993  0.49140757     0.46200
H1462       H  0.06064690  0.25040033  0.54368095     0.41600
H1463       H  0.12864518  0.19653037  0.52472011     0.45000
H1464       H  0.08359637  0.25864244  0.48418389     0.36500
C1465       C  0.87838803  0.01048118  0.36165630    -0.27700
C1466       C  0.89229729  0.99725972  0.36859217     0.01900
C1467       C  0.91959291  0.01316936  0.37680503     0.30000
C1468       C  0.93229179  0.04187323  0.37889353    -0.19500
C1469       C  0.91796504  0.05524628  0.37321476    -0.28900
C1470       C  0.89100741  0.03922059  0.36374322     0.44000
C1471       C  0.87722562  0.96681669  0.37030549     0.05200
O1472       O  0.93366174  0.00067845  0.38365653    -0.57400
H1473       H  0.95301123  0.05348025  0.38603891     0.18100
O1474       O  0.87614348  0.05109529  0.35765007    -0.64200
H1475       H  0.85726900  0.99834844  0.35547411     0.16600
C1476       C  0.86400931  0.95402515  0.39172114     0.28800
C1477       C  0.85267646  0.92567609  0.39460792    -0.25100
C1478       C  0.85410087  0.90959780  0.37624645    -0.24300
C1479       C  0.86613224  0.92210529  0.35435272     0.40300
C1480       C  0.87780134  0.95067867  0.35153670    -0.26800
O1481       O  0.86289804  0.96930190  0.41021921    -0.58700
H1482       H  0.84372385  0.91637550  0.41162561     0.15900
O1483       O  0.86887411  0.90713937  0.33647960    -0.60100
H1484       H  0.88820298  0.96041056  0.33506434     0.14400
H1485       H  0.88161504  0.05738343  0.34102957     0.46200
H1486       H  0.87951570  0.97469826  0.41992509     0.41600
H1487       H  0.85156641  0.89922243  0.32718355     0.45000
H1488       H  0.93085327  0.99818958  0.40109385     0.36500
C1489       C  0.05422480  0.12538032  0.34954498    -0.27700
C1490       C  0.06955196  0.12195061  0.36722141     0.01900
C1491       C  0.06858473  0.13003106  0.39072710     0.30000
C1492       C  0.05166994  0.14038218  0.39651970    -0.19500
C1493       C  0.03573949  0.14324102  0.37904874    -0.28900
C1494       C  0.03765119  0.13632624  0.35526838     0.44000
C1495       C  0.08552283  0.10864004  0.36178664     0.05200
O1496       O  0.08356253  0.12713901  0.40831615    -0.57400
H1497       H  0.05051316  0.14561396  0.41488225     0.18100
O1498       O  0.02190080  0.13826151  0.33786143    -0.64200
H1499       H  0.05474765  0.11911099  0.33141262     0.16600
C1500       C  0.07218662  0.07978916  0.35949400     0.28800
C1501       C  0.08764920  0.06692159  0.35964335    -0.25100
C1502       C  0.11653916  0.08251822  0.36210094    -0.24300
C1503       C  0.12991032  0.11168167  0.36248742     0.40300
C1504       C  0.11436380  0.12439651  0.36257336    -0.26800
O1505       O  0.04394675  0.06389981  0.35851044    -0.58700
H1506       H  0.07684096  0.04459000  0.35911420     0.15900
O1507       O  0.15799195  0.12800149  0.36486086    -0.60100
H1508       H  0.12481360  0.14662407  0.36447783     0.14400
H1509       H  0.03391673  0.15664360  0.33059881     0.46200
H1510       H  0.03783158  0.05902900  0.37525937     0.41600
H1511       H  0.16520948  0.13241851  0.34837165     0.45000
H1512       H  0.07162014  0.10803714  0.41424625     0.36500
C1513       C  0.44142428  0.56956743  0.18659792    -0.27700
C1514       C  0.46123104  0.59801314  0.18636261     0.01900
C1515       C  0.46997535  0.61225140  0.20830596     0.30000
C1516       C  0.45616225  0.59925997  0.22932550    -0.19500
C1517       C  0.43451203  0.57167379  0.22908870    -0.28900
C1518       C  0.42821865  0.55634281  0.20786059     0.44000
C1519       C  0.46843961  0.61364144  0.16355583     0.05200
O1520       O  0.49040718  0.63959320  0.20912779    -0.57400
H1521       H  0.46118163  0.61125697  0.24559786     0.18100
O1522       O  0.40748707  0.52908942  0.20735261    -0.64200
H1523       H  0.43429951  0.55808270  0.17009608     0.16600
C1524       C  0.47556146  0.60485953  0.14265402     0.28800
C1525       C  0.47939233  0.61903914  0.12113286    -0.25100
C1526       C  0.47615013  0.64201580  0.12002361    -0.24300
C1527       C  0.46965319  0.65100791  0.14116966     0.40300
C1528       C  0.46570578  0.63681804  0.16239692    -0.26800
O1529       O  0.47942898  0.58291905  0.14320919    -0.58700
H1530       H  0.48463038  0.61182508  0.10524748     0.15900
O1531       O  0.46644678  0.67336392  0.14136252    -0.60100
H1532       H  0.45946684  0.64356649  0.17797710     0.14400
H1533       H  0.39074422  0.52907969  0.20236250     0.46200
H1534       H  0.46374336  0.56792078  0.13418979     0.41600
H1535       H  0.44641149  0.66562723  0.13903242     0.45000
H1536       H  0.50790689  0.63974788  0.20781113     0.36500
C1537       C  0.68259953  0.75182673  0.07236968    -0.27700
C1538       C  0.66165149  0.75407890  0.08350043     0.01900
C1539       C  0.66836220  0.77186313  0.10320312     0.30000
C1540       C  0.69562974  0.78748012  0.11115527    -0.19500
C1541       C  0.71689761  0.78594918  0.09971141    -0.28900
C1542       C  0.71000318  0.76744043  0.08037293     0.44000
C1543       C  0.63301903  0.73894506  0.07408280     0.05200
O1544       O  0.64850594  0.77483129  0.11437989    -0.57400
H1545       H  0.70018569  0.80139351  0.12605201     0.18100
O1546       O  0.72998587  0.76541434  0.06838456    -0.64200
H1547       H  0.67774556  0.73815134  0.05724057     0.16600
C1548       C  0.62721444  0.74363854  0.05085596     0.28800
C1549       C  0.59976923  0.73237284  0.04354812    -0.25100
C1550       C  0.57774465  0.71572849  0.05893328    -0.24300
C1551       C  0.58364316  0.70992565  0.08178233     0.40300
C1552       C  0.61104529  0.72163993  0.08919641    -0.26800
O1553       O  0.64821438  0.76063722  0.03570766    -0.58700
H1554       H  0.59571761  0.73693563  0.02588636     0.15900
O1555       O  0.56282799  0.69444793  0.09764690    -0.60100
H1556       H  0.61517098  0.71781192  0.10710671     0.14400
H1557       H  0.72944455  0.74905474  0.07522097     0.46200
H1558       H  0.65039838  0.74807374  0.02484145     0.41600
H1559       H  0.56031502  0.67580964  0.09706241     0.45000
H1560       H  0.64763762  0.78929495  0.10528778     0.36500
C1561       C  0.27851951  0.46633025  0.18250182    -0.27700
C1562       C  0.28471258  0.48731156  0.16614467     0.01900
C1563       C  0.30759880  0.51390830  0.16990953     0.30000
C1564       C  0.32325777  0.51965798  0.19050181    -0.19500
C1565       C  0.31604909  0.49923602  0.20783850    -0.28900
C1566       C  0.29414138  0.47208899  0.20325615     0.44000
C1567       C  0.26494048  0.48282924  0.14733588     0.05200
O1568       O  0.31312253  0.53503934  0.15474144    -0.57400
H1569       H  0.33987593  0.54070956  0.19362453     0.18100
O1570       O  0.28693841  0.45140850  0.21941407    -0.64200
H1571       H  0.26077419  0.44581423  0.17969011     0.16600
C1572       C  0.27052659  0.48067375  0.12332983     0.28800
C1573       C  0.25328238  0.48072470  0.10563436    -0.25100
C1574       C  0.23073035  0.48345085  0.11169695    -0.24300
C1575       C  0.22479551  0.48469804  0.13591955     0.40300
C1576       C  0.24171166  0.48407120  0.15349406    -0.26800
O1577       O  0.29350665  0.47994632  0.11698520    -0.58700
H1578       H  0.25839185  0.48008717  0.08714693     0.15900
O1579       O  0.20268081  0.48683010  0.14261761    -0.60100
H1580       H  0.23744544  0.48590951  0.17200139     0.14400
H1581       H  0.29873257  0.44376732  0.21548295     0.46200
H1582       H  0.28832883  0.46051657  0.11929482     0.41600
H1583       H  0.21052545  0.50661855  0.14650132     0.45000
H1584       H  0.32604972  0.53515685  0.14274421     0.36500
C1585       C  0.30890047  0.58102485  0.02248662    -0.27700
C1586       C  0.32144433  0.56586489  0.01732055     0.01900
C1587       C  0.30502008  0.53726370  0.01339309     0.30000
C1588       C  0.27640749  0.52378335  0.01659247    -0.19500
C1589       C  0.26421779  0.53861283  0.02426131    -0.28900
C1590       C  0.28043079  0.56755832  0.02606117     0.44000
C1591       C  0.35127248  0.57916996  0.02143607     0.05200
O1592       O  0.31697188  0.52202819  0.00877672    -0.57400
H1593       H  0.26417828  0.50147199  0.01538214     0.18100
O1594       O  0.26896480  0.58254816  0.03332812    -0.64200
H1595       H  0.32147522  0.60305296  0.02572423     0.16600
C1596       C  0.37074488  0.59650662  0.00442589     0.28800
C1597       C  0.39865205  0.61282588  0.01074205    -0.25100
C1598       C  0.40697789  0.61264066  0.03418944    -0.24300
C1599       C  0.38757241  0.59426189  0.05079695     0.40300
C1600       C  0.35997929  0.57753857  0.04429594    -0.26800
O1601       O  0.36251156  0.59848116  0.98202338    -0.58700
H1602       H  0.41336692  0.62711452  0.99788569     0.15900
O1603       O  0.39510521  0.59372189  0.07384192    -0.60100
H1604       H  0.34500357  0.56444981  0.05757102     0.14400
H1605       H  0.26355073  0.58782875  0.01845854     0.46200
H1606       H  0.35845901  0.61348733  0.98306937     0.41600
H1607       H  0.40143601  0.58040072  0.07380581     0.45000
H1608       H  0.32096424  0.52412692  0.99147732     0.36500
C1609       C  0.07194819  0.35956807  0.07712397    -0.27700
C1610       C  0.08457554  0.34526438  0.08483269     0.01900
C1611       C  0.11353638  0.35888505  0.08500275     0.30000
C1612       C  0.12940803  0.38635632  0.07774395    -0.19500
C1613       C  0.11701773  0.40104037  0.07022478    -0.28900
C1614       C  0.08790363  0.38727451  0.06995070     0.44000
C1615       C  0.06773764  0.31608351  0.09257149     0.05200
O1616       O  0.12650018  0.34506962  0.09128964    -0.57400
H1617       H  0.15165375  0.39609770  0.07796541     0.18100
O1618       O  0.07477459  0.40069214  0.06310067    -0.64200
H1619       H  0.04965188  0.34929441  0.07690810     0.16600
C1620       C  0.07136144  0.30830415  0.11535312     0.28800
C1621       C  0.05871103  0.28041897  0.12122914    -0.25100
C1622       C  0.04166178  0.25975928  0.10489310    -0.24300
C1623       C  0.03640019  0.26754169  0.08266283     0.40300
C1624       C  0.04956049  0.29557658  0.07660143    -0.26800
O1625       O  0.08793121  0.32784215  0.13180510    -0.58700
H1626       H  0.06261167  0.27492111  0.13856360     0.15900
O1627       O  0.02018852  0.24798956  0.06607511    -0.60100
H1628       H  0.04651645  0.30125808  0.05902727     0.14400
H1629       H  0.07182431  0.39732313  0.04574185     0.46200
H1630       H  0.07618594  0.33406406  0.13921543     0.41600
H1631       H  0.00139759  0.24470468  0.06858216     0.45000
H1632       H  0.13567758  0.35326569  0.10666626     0.36500
C1633       C  0.23896043  0.58646219  0.30317713    -0.27700
C1634       C  0.22569122  0.55780699  0.30578571     0.01900
C1635       C  0.19684130  0.54230110  0.30851942     0.30000
C1636       C  0.18154122  0.55538507  0.30729332    -0.19500
C1637       C  0.19466552  0.58393863  0.30290458    -0.28900
C1638       C  0.22385717  0.59957241  0.30180360     0.44000
C1639       C  0.24195696  0.54449785  0.30142041     0.05200
O1640       O  0.18333869  0.51423372  0.31129338    -0.57400
H1641       H  0.15925026  0.54284238  0.30831470     0.18100
O1642       O  0.23790594  0.62746236  0.29774906    -0.64200
H1643       H  0.26115550  0.59859278  0.30085775     0.16600
C1644       C  0.24735130  0.54028230  0.27784812     0.28800
C1645       C  0.26708875  0.53316745  0.27304726    -0.25100
C1646       C  0.28135772  0.52941294  0.29154886    -0.24300
C1647       C  0.27450391  0.53163549  0.31529405     0.40300
C1648       C  0.25507730  0.53943298  0.32010133    -0.26800
O1649       O  0.23461462  0.54477591  0.25926396    -0.58700
H1650       H  0.27182245  0.53130455  0.25469033     0.15900
O1651       O  0.28772122  0.52777061  0.33385063    -0.60100
H1652       H  0.25112955  0.54265693  0.33833624     0.14400
H1653       H  0.24104009  0.63608336  0.31372885     0.46200
H1654       H  0.21670939  0.52723261  0.25731127     0.41600
H1655       H  0.30505559  0.54582457  0.33613329     0.45000
H1656       H  0.17812786  0.50650061  0.29498858     0.36500
C1657       C  0.12460117  0.51926523  0.21054985    -0.27700
C1658       C  0.10959231  0.52025076  0.19130939     0.01900
C1659       C  0.09444599  0.53339187  0.19394961     0.30000
C1660       C  0.09706586  0.54813867  0.21484725    -0.19500
C1661       C  0.11511365  0.55015066  0.23276271    -0.28900
C1662       C  0.12756274  0.53427256  0.23120136     0.44000
C1663       C  0.11729328  0.51578341  0.16748786     0.05200
O1664       O  0.07912543  0.53396234  0.17540980    -0.57400
H1665       H  0.08734508  0.56025723  0.21596035     0.18100
O1666       O  0.14498733  0.53566406  0.24872722    -0.64200
H1667       H  0.13652503  0.50940897  0.20855575     0.16600
C1668       C  0.13939691  0.53834198  0.15585701     0.28800
C1669       C  0.14951422  0.53437878  0.13460137    -0.25100
C1670       C  0.13775352  0.50800204  0.12437502    -0.24300
C1671       C  0.11514131  0.48534875  0.13587541     0.40300
C1672       C  0.10514802  0.48936597  0.15744446    -0.26800
O1673       O  0.15213745  0.56422657  0.16584148    -0.58700
H1674       H  0.16678725  0.55213488  0.12618603     0.15900
O1675       O  0.10291404  0.45924192  0.12645410    -0.60100
H1676       H  0.08832439  0.47186993  0.16652980     0.14400
H1677       H  0.13306236  0.52068778  0.25995193     0.46200
H1678       H  0.14307465  0.57337377  0.15858505     0.41600
H1679       H  0.11370613  0.45140406  0.13272564     0.45000
H1680       H  0.09121226  0.55182155  0.16731978     0.36500
C1681       C  0.27506281  0.74339910  0.28017016    -0.27700
C1682       C  0.28783223  0.74134708  0.30068167     0.01900
C1683       C  0.27170381  0.72155960  0.31801132     0.30000
C1684       C  0.24322783  0.70368412  0.31436883    -0.19500
C1685       C  0.23082751  0.70487504  0.29323260    -0.28900
C1686       C  0.24688915  0.72513218  0.27623804     0.44000
C1687       C  0.31823393  0.75902758  0.30274272     0.05200
O1688       O  0.28364795  0.71954299  0.33843386    -0.57400
H1689       H  0.23117018  0.68790653  0.32741864     0.18100
O1690       O  0.23517086  0.72702625  0.25560378    -0.64200
H1691       H  0.28723800  0.75851898  0.26668624     0.16600
C1692       C  0.33500224  0.74758336  0.30083917     0.28800
C1693       C  0.36362706  0.76486707  0.29851911    -0.25100
C1694       C  0.37607564  0.79375212  0.29774134    -0.24300
C1695       C  0.35935170  0.80516512  0.30135753     0.40300
C1696       C  0.33067385  0.78779821  0.30362250    -0.26800
O1697       O  0.32349365  0.71952410  0.29983566    -0.58700
H1698       H  0.37593027  0.75548674  0.29607503     0.15900
O1699       O  0.37056981  0.83318929  0.30174912    -0.60100
H1700       H  0.31796387  0.79683729  0.30516023     0.14400
H1701       H  0.23948845  0.71708995  0.24341435     0.46200
H1702       H  0.32090709  0.71479466  0.28266427     0.41600
H1703       H  0.36754277  0.83793427  0.28556323     0.45000
H1704       H  0.28501793  0.70292955  0.33622036     0.36500
C1705       C  0.52283985  0.77377534  0.14361332    -0.27700
C1706       C  0.51900878  0.79607753  0.14043308     0.01900
C1707       C  0.51636921  0.80365673  0.11724461     0.30000
C1708       C  0.51543742  0.78766359  0.09775877    -0.19500
C1709       C  0.51704810  0.76410243  0.10119063    -0.28900
C1710       C  0.52173460  0.75771272  0.12415691     0.44000
C1711       C  0.51328002  0.80818891  0.16143119     0.05200
O1712       O  0.51366513  0.82604971  0.11366321    -0.57400
H1713       H  0.51149791  0.79254082  0.08017180     0.18100
O1714       O  0.52264265  0.73434660  0.12803231    -0.64200
H1715       H  0.52462559  0.76758745  0.16138219     0.16600
C1716       C  0.48675744  0.80397027  0.16467259     0.28800
C1717       C  0.48043558  0.81323664  0.18537493    -0.25100
C1718       C  0.49997861  0.82612281  0.20360840    -0.24300
C1719       C  0.52677980  0.83085610  0.20018955     0.40300
C1720       C  0.53321029  0.82176133  0.17923282    -0.26800
O1721       O  0.46640225  0.78956643  0.14816910    -0.58700
H1722       H  0.45959134  0.80895819  0.18761548     0.15900
O1723       O  0.54662589  0.84374224  0.21735387    -0.60100
H1724       H  0.55362485  0.82489602  0.17701649     0.14400
H1725       H  0.54148949  0.73924020  0.12328111     0.46200
H1726       H  0.45645925  0.77015779  0.15369349     0.41600
H1727       H  0.55544599  0.86374808  0.21405709     0.45000
H1728       H  0.49417234  0.81834640  0.10885379     0.36500
C1729       C  0.40461668  0.66001615  0.31279553    -0.27700
C1730       C  0.43265575  0.67693054  0.30713608     0.01900
C1731       C  0.44846700  0.66490228  0.30244206     0.30000
C1732       C  0.43577894  0.63613554  0.30195927    -0.19500
C1733       C  0.40714975  0.61907746  0.30548438    -0.28900
C1734       C  0.39181048  0.63125770  0.31204199     0.44000
C1735       C  0.44330671  0.70593177  0.30075267     0.05200
O1736       O  0.47584437  0.68104808  0.29652695    -0.57400
H1737       H  0.44796811  0.62727438  0.29677366     0.18100
O1738       O  0.36395576  0.61533154  0.31612594    -0.64200
H1739       H  0.39222012  0.66914154  0.31614380     0.16600
C1740       C  0.43722751  0.71170188  0.27817057     0.28800
C1741       C  0.44629534  0.73877340  0.27181808    -0.25100
C1742       C  0.46120974  0.76074026  0.28785885    -0.24300
C1743       C  0.46774169  0.75499375  0.31049520     0.40300
C1744       C  0.45889542  0.72762835  0.31674689    -0.26800
O1745       O  0.42241117  0.69085522  0.26208880    -0.58700
H1746       H  0.44109178  0.74240611  0.25425609     0.15900
O1747       O  0.48228326  0.77572013  0.32671402    -0.60100
H1748       H  0.46371890  0.72327708  0.33418428     0.14400
H1749       H  0.36209285  0.61218987  0.33354231     0.46200
H1750       H  0.40288151  0.68527861  0.26468562     0.41600
H1751       H  0.46812311  0.77709126  0.33600933     0.45000
H1752       H  0.47615396  0.68334785  0.27902671     0.36500
C1753       C  0.22623738  0.93833112  0.07701166    -0.27700
C1754       C  0.22386793  0.91655122  0.09062999     0.01900
C1755       C  0.20672741  0.90791073  0.11084063     0.30000
C1756       C  0.19176572  0.92052054  0.11683179    -0.19500
C1757       C  0.19330566  0.94178286  0.10278336    -0.28900
C1758       C  0.21118064  0.95090902  0.08288063     0.44000
C1759       C  0.23653794  0.90078705  0.08193281     0.05200
O1760       O  0.20379586  0.88655856  0.12444661    -0.57400
H1761       H  0.17831111  0.91305049  0.13222607     0.18100
O1762       O  0.21338404  0.97137969  0.06847261    -0.64200
H1763       H  0.23909996  0.94495578  0.06123419     0.16600
C1764       C  0.22334372  0.88076046  0.06400601     0.28800
C1765       C  0.23455086  0.86511661  0.05620973    -0.25100
C1766       C  0.25943235  0.86943644  0.06560291    -0.24300
C1767       C  0.27297791  0.88988102  0.08331534     0.40300
C1768       C  0.26136315  0.90520783  0.09152277    -0.26800
O1769       O  0.19886490  0.87564480  0.05456878    -0.58700
H1770       H  0.22359014  0.84932243  0.04281100     0.15900
O1771       O  0.29653437  0.89377756  0.09377547    -0.60100
H1772       H  0.27160967  0.92038532  0.10550832     0.14400
H1773       H  0.19896310  0.96172023  0.05616123     0.46200
H1774       H  0.20414435  0.88889499  0.04127794     0.41600
H1775       H  0.31187680  0.91018336  0.08583181     0.45000
H1776       H  0.18782984  0.86970577  0.11753988     0.36500
C1777       C  0.23956980  0.67228059  0.03385161    -0.27700
C1778       C  0.21285053  0.65774102  0.02442097     0.01900
C1779       C  0.20064984  0.67235648  0.01631380     0.30000
C1780       C  0.21460826  0.70116784  0.01902241    -0.19500
C1781       C  0.24050659  0.71540341  0.03013107    -0.28900
C1782       C  0.25337767  0.70085630  0.03676157     0.44000
C1783       C  0.19748111  0.62728199  0.02539318     0.05200
O1784       O  0.17458912  0.65852588  0.00690970    -0.57400
H1785       H  0.20437285  0.71205418  0.01405728     0.18100
O1786       O  0.27872260  0.71421009  0.04761215    -0.64200
H1787       H  0.24917108  0.66123961  0.04017333     0.16600
C1788       C  0.20662558  0.61244951  0.01219060     0.28800
C1789       C  0.19663319  0.58479554  0.01752084    -0.25100
C1790       C  0.17790232  0.57171407  0.03629599    -0.24300
C1791       C  0.16711249  0.58588159  0.04832316     0.40300
C1792       C  0.17695769  0.61358725  0.04280821    -0.26800
O1793       O  0.22642485  0.62528154  0.99492252    -0.58700
H1794       H  0.20513898  0.57412528  0.00813562     0.15900
O1795       O  0.14966661  0.57406170  0.06733017    -0.60100
H1796       H  0.17019206  0.62500718  0.05340772     0.14400
H1797       H  0.29217474  0.71771658  0.03475656     0.46200
H1798       H  0.24401328  0.62972790  0.00253575     0.41600
H1799       H  0.13095829  0.56314381  0.06031942     0.45000
H1800       H  0.17726475  0.65696170  0.98966096     0.36500
C1801       C  0.17302093  0.68245191  0.16919963    -0.27700
C1802       C  0.17151701  0.70632120  0.16934508     0.01900
C1803       C  0.16190260  0.71307700  0.18980485     0.30000
C1804       C  0.15570632  0.69700829  0.21035067    -0.19500
C1805       C  0.15931485  0.67427039  0.21089396    -0.28900
C1806       C  0.16720409  0.66655395  0.18974483     0.44000
C1807       C  0.18533525  0.72651182  0.15000734     0.05200
O1808       O  0.15927117  0.73579240  0.18999589    -0.57400
H1809       H  0.14918936  0.70309177  0.22617467     0.18100
O1810       O  0.17089991  0.64450641  0.18922842    -0.64200
H1811       H  0.18069935  0.67724267  0.15359008     0.16600
C1812       C  0.21108832  0.75041703  0.15445011     0.28800
C1813       C  0.22709433  0.76691990  0.13561573    -0.25100
C1814       C  0.21817556  0.75974482  0.11198594    -0.24300
C1815       C  0.19147986  0.73682889  0.10760979     0.40300
C1816       C  0.17537838  0.72018388  0.12660804    -0.26800
O1817       O  0.22176641  0.75666830  0.17702396    -0.58700
H1818       H  0.24743456  0.78445752  0.13947676     0.15900
O1819       O  0.18193783  0.72904346  0.08483208    -0.60100
H1820       H  0.15569922  0.70162297  0.12298761     0.14400
H1821       H  0.19067918  0.65232275  0.19300827     0.46200
H1822       H  0.23163274  0.74660679  0.17895198     0.41600
H1823       H  0.17203156  0.73872517  0.08124453     0.45000
H1824       H  0.17514774  0.74999974  0.19938764     0.36500
C1825       C  0.38066651  0.88330014  0.14517462    -0.27700
C1826       C  0.37688914  0.86499728  0.16350327     0.01900
C1827       C  0.35551116  0.83720879  0.16185516     0.30000
C1828       C  0.33881746  0.82774746  0.14171287    -0.19500
C1829       C  0.34297074  0.84568587  0.12292850    -0.28900
C1830       C  0.36355281  0.87387949  0.12505114     0.44000
C1831       C  0.39667003  0.87357924  0.18330285     0.05200
O1832       O  0.35148308  0.81887594  0.17951322    -0.57400
H1833       H  0.32298228  0.80606922  0.14050544     0.18100
O1834       O  0.36840065  0.89190948  0.10691042    -0.64200
H1835       H  0.39729910  0.90466978  0.14621422     0.16600
C1836       C  0.42160681  0.87426050  0.17993837     0.28800
C1837       C  0.43635350  0.87390467  0.19965497    -0.25100
C1838       C  0.42644548  0.87289165  0.22273209    -0.24300
C1839       C  0.40283343  0.87459817  0.22613272     0.40300
C1840       C  0.38799353  0.87483647  0.20642336    -0.26800
O1841       O  0.43032154  0.87268852  0.15750441    -0.58700
H1842       H  0.45426346  0.87208250  0.19688342     0.15900
O1843       O  0.39247140  0.87296533  0.24852876    -0.60100
H1844       H  0.36857263  0.87381883  0.20917530     0.14400
H1845       H  0.35777879  0.90071565  0.11117695     0.46200
H1846       H  0.42159049  0.85266368  0.15411789     0.41600
H1847       H  0.40150614  0.89233309  0.25421125     0.45000
H1848       H  0.36411409  0.81222174  0.17561133     0.36500
C1849       C  0.40050392  0.79478968  0.04313984    -0.27700
C1850       C  0.39164208  0.77276795  0.02691351     0.01900
C1851       C  0.36640270  0.76296015  0.01500572     0.30000
C1852       C  0.34987144  0.77398502  0.02038528    -0.19500
C1853       C  0.35809492  0.79505120  0.03746678    -0.28900
C1854       C  0.38399065  0.80596041  0.04841118     0.44000
C1855       C  0.40721462  0.75820852  0.02486898     0.05200
O1856       O  0.35707611  0.74166972  0.99894357    -0.57400
H1857       H  0.32987713  0.76514327  0.01193425     0.18100
O1858       O  0.39196792  0.82535157  0.06612067    -0.64200
H1859       H  0.41951953  0.80222145  0.05290028     0.16600
C1860       C  0.43563229  0.77250603  0.01961141     0.28800
C1861       C  0.45063264  0.75915753  0.02151431    -0.25100
C1862       C  0.43776357  0.73143300  0.02881342    -0.24300
C1863       C  0.40881678  0.71665304  0.03238068     0.40300
C1864       C  0.39396158  0.73006238  0.03051143    -0.26800
O1865       O  0.44889754  0.79956241  0.01258805    -0.58700
H1866       H  0.47265044  0.77096737  0.01821400     0.15900
O1867       O  0.39491813  0.68947061  0.03907907    -0.60100
H1868       H  0.37211052  0.71865370  0.03462653     0.14400
H1869       H  0.40590037  0.84303914  0.05868918     0.46200
H1870       H  0.45960565  0.81044260  0.02664486     0.41600
H1871       H  0.38816122  0.67880776  0.02402354     0.45000
H1872       H  0.36164777  0.75057709  0.98309919     0.36500
C1873       C  0.51633776  0.85015732  0.38418814    -0.27700
C1874       C  0.49414730  0.84180621  0.39984506     0.01900
C1875       C  0.46973713  0.83963376  0.39161981     0.30000
C1876       C  0.46749357  0.84508203  0.36779977    -0.19500
C1877       C  0.48949739  0.85295942  0.35180976    -0.28900
C1878       C  0.51432909  0.85602570  0.36041905     0.44000
C1879       C  0.49717290  0.83679486  0.42504507     0.05200
O1880       O  0.44789930  0.83204327  0.40672263    -0.57400
H1881       H  0.44825953  0.84271649  0.36180611     0.18100
O1882       O  0.53668941  0.86438855  0.34579301    -0.64200
H1883       H  0.53545014  0.85249431  0.39052223     0.16600
C1884       C  0.50096140  0.81516885  0.43189285     0.28800
C1885       C  0.50399451  0.81116139  0.45601701    -0.25100
C1886       C  0.50388201  0.82895055  0.47347998    -0.24300
C1887       C  0.50017325  0.85069142  0.46635189     0.40300
C1888       C  0.49666001  0.85426673  0.44238220    -0.26800
O1889       O  0.50082088  0.79736347  0.41520474    -0.58700
H1890       H  0.50664129  0.79427142  0.46102463     0.15900
O1891       O  0.49901098  0.86809985  0.48270969    -0.60100
H1892       H  0.49375143  0.87097176  0.43725981     0.14400
H1893       H  0.54792197  0.88474363  0.34764731     0.46200
H1894       H  0.52049777  0.80472424  0.41135087     0.41600
H1895       H  0.51778244  0.88483034  0.48281316     0.45000
H1896       H  0.43700798  0.81157618  0.40617588     0.36500
C1897       C  0.67525329  0.90455825  0.60261852    -0.27700
C1898       C  0.66926438  0.91727108  0.58430211     0.01900
C1899       C  0.69035694  0.94263568  0.57525476     0.30000
C1900       C  0.71728448  0.95439186  0.58388301    -0.19500
C1901       C  0.72370067  0.94103134  0.60145680    -0.28900
C1902       C  0.70215579  0.91609018  0.61115139     0.44000
C1903       C  0.64126144  0.90289928  0.57394446     0.05200
O1904       O  0.68507749  0.95558526  0.55738098    -0.57400
H1905       H  0.73334062  0.97355179  0.57613063     0.18100
O1906       O  0.70708269  0.90256399  0.62875532    -0.64200
H1907       H  0.65904341  0.88519478  0.60996545     0.16600
C1908       C  0.63035243  0.87659169  0.56369777     0.28800
C1909       C  0.60327650  0.86227474  0.55528630    -0.25100
C1910       C  0.58636208  0.87353408  0.55729886    -0.24300
C1911       C  0.59765766  0.90036376  0.56680045     0.40300
C1912       C  0.62503637  0.91492961  0.57488409    -0.26800
O1913       O  0.64620472  0.86487834  0.56157457    -0.58700
H1914       H  0.59524151  0.84180710  0.54790189     0.15900
O1915       O  0.58232060  0.91267149  0.56796577    -0.60100
H1916       H  0.63337905  0.93534268  0.58248843     0.14400
H1917       H  0.70873266  0.88799965  0.62046253     0.46200
H1918       H  0.63943821  0.85057925  0.57411306     0.41600
H1919       H  0.57525987  0.90976662  0.58451543     0.45000
H1920       H  0.68708752  0.94743081  0.54243553     0.36500
C1921       C  0.51193329  0.67234983  0.88235165    -0.27700
C1922       C  0.49328416  0.65228639  0.89819816     0.01900
C1923       C  0.47370393  0.62589308  0.88937258     0.30000
C1924       C  0.47240796  0.62031696  0.86480501    -0.19500
C1925       C  0.49050491  0.64084073  0.84879741    -0.28900
C1926       C  0.51081591  0.66681452  0.85797834     0.44000
C1927       C  0.49425607  0.65983970  0.92369489     0.05200
O1928       O  0.45465616  0.60610549  0.90438529    -0.57400
H1929       H  0.45645035  0.60033816  0.85818585     0.18100
O1930       O  0.52942637  0.68726730  0.84320619    -0.64200
H1931       H  0.52731384  0.69261355  0.88892680     0.16600
C1932       C  0.50294022  0.64851910  0.94126308     0.28800
C1933       C  0.50583384  0.65769013  0.96490058    -0.25100
C1934       C  0.49978625  0.67797199  0.97168035    -0.24300
C1935       C  0.49064868  0.68896396  0.95397945     0.40300
C1936       C  0.48826398  0.68010155  0.93025664    -0.26800
O1937       O  0.50982219  0.62936204  0.93530399    -0.58700
H1938       H  0.51288129  0.64878184  0.97796937     0.15900
O1939       O  0.48414751  0.70849019  0.95951649    -0.60100
H1940       H  0.48166560  0.68909352  0.91685928     0.14400
H1941       H  0.54472053  0.68373767  0.84129508     0.46200
H1942       H  0.49413376  0.61144148  0.94081969     0.41600
H1943       H  0.46414644  0.69790495  0.96328924     0.45000
H1944       H  0.46004214  0.59210596  0.90569597     0.36500
C1945       C  0.51836423  0.75677340  0.64769558    -0.27700
C1946       C  0.52656665  0.73770960  0.64366053     0.01900
C1947       C  0.53479406  0.73502826  0.62060789     0.30000
C1948       C  0.53307916  0.75017090  0.60165144    -0.19500
C1949       C  0.52280888  0.76768431  0.60550648    -0.28900
C1950       C  0.51634643  0.77154922  0.62886511     0.44000
C1951       C  0.52149181  0.71772205  0.66274857     0.05200
O1952       O  0.54257392  0.71624542  0.61613553    -0.57400
H1953       H  0.53774177  0.74664602  0.58375049     0.18100
O1954       O  0.50613808  0.78835159  0.63321787    -0.64200
H1955       H  0.51169769  0.75882447  0.66527831     0.16600
C1956       C  0.53908102  0.72499922  0.68254843     0.28800
C1957       C  0.53063288  0.70774683  0.70261720    -0.25100
C1958       C  0.50429507  0.68368189  0.70341313    -0.24300
C1959       C  0.48744181  0.67581651  0.68303175     0.40300
C1960       C  0.49612164  0.69270569  0.66293533    -0.26800
O1961       O  0.56401728  0.74938590  0.68277265    -0.58700
H1962       H  0.54382315  0.71417696  0.71813799     0.15900
O1963       O  0.46175847  0.65230158  0.68303426    -0.60100
H1964       H  0.48225691  0.68704502  0.64792695     0.14400
H1965       H  0.52265481  0.80702182  0.63546359     0.46200
H1966       H  0.56034004  0.76293095  0.69046914     0.41600
H1967       H  0.46473761  0.63747414  0.67729873     0.45000
H1968       H  0.56194124  0.72526500  0.62167532     0.36500
C1969       C  0.12421674  0.65275496  0.44774636    -0.27700
C1970       C  0.14677715  0.66441132  0.43215655     0.01900
C1971       C  0.17266347  0.68561247  0.44030899     0.30000
C1972       C  0.17570608  0.69479329  0.46388615    -0.19500
C1973       C  0.15323289  0.68284620  0.47975822    -0.28900
C1974       C  0.12722846  0.66168988  0.47135984     0.44000
C1975       C  0.14271608  0.65473869  0.40723488     0.05200
O1976       O  0.19483323  0.69808147  0.42512610    -0.57400
H1977       H  0.19588296  0.71104626  0.46980051     0.18100
O1978       O  0.10465745  0.64921011  0.48607777    -0.64200
H1979       H  0.10417599  0.63644350  0.44159618     0.16600
C1980       C  0.15681782  0.64247014  0.39772894     0.28800
C1981       C  0.15291393  0.63397913  0.37392223    -0.25100
C1982       C  0.13513864  0.63772321  0.35929292    -0.24300
C1983       C  0.12030873  0.64912999  0.36910362     0.40300
C1984       C  0.12414503  0.65749087  0.39291160    -0.26800
O1985       O  0.17461631  0.63891977  0.41149272    -0.58700
H1986       H  0.16442527  0.62518366  0.36670735     0.15900
O1987       O  0.10211758  0.65233531  0.35558134    -0.60100
H1988       H  0.11289112  0.66655365  0.40015518     0.14400
H1989       H  0.09542375  0.65988366  0.48410870     0.46200
H1990       H  0.16295569  0.62086233  0.41940690     0.41600
H1991       H  0.08468084  0.63409691  0.35589317     0.45000
H1992       H  0.20726583  0.69164130  0.43015630     0.36500
C1993       C  0.31128924  0.74365985  0.52549548    -0.27700
C1994       C  0.32714674  0.77246963  0.52777890     0.01900
C1995       C  0.31368469  0.78726381  0.53059350     0.30000
C1996       C  0.28480865  0.77313644  0.53235290    -0.19500
C1997       C  0.26889856  0.74408400  0.53187898    -0.28900
C1998       C  0.28243299  0.72944963  0.52747598     0.44000
C1999       C  0.35736741  0.78615277  0.53139159     0.05200
O2000       O  0.32870042  0.81550181  0.53243318    -0.57400
H2001       H  0.27506056  0.78496869  0.53559785     0.18100
O2002       O  0.26787448  0.70117897  0.52630657    -0.64200
H2003       H  0.32143649  0.73201856  0.52349938     0.16600
C2004       C  0.36793377  0.79262349  0.55461491     0.28800
C2005       C  0.39584642  0.80266767  0.55870174    -0.25100
C2006       C  0.41390866  0.80651109  0.53990086    -0.24300
C2007       C  0.40359230  0.80097122  0.51645160     0.40300
C2008       C  0.37539231  0.79077013  0.51233083    -0.26800
O2009       O  0.35064336  0.78723082  0.57364494    -0.58700
H2010       H  0.40320045  0.80650240  0.57689196     0.15900
O2011       O  0.42042217  0.80395758  0.49766653    -0.60100
H2012       H  0.36741774  0.78564691  0.49437238     0.14400
H2013       H  0.26155436  0.69665097  0.50958480     0.46200
H2014       H  0.35382578  0.80543134  0.57869335     0.41600
H2015       H  0.41949109  0.78604354  0.49636012     0.45000
H2016       H  0.32934976  0.81954798  0.54968293     0.36500
C2017       C  0.08877791  0.74632574  0.55492593    -0.27700
C2018       C  0.07480453  0.73977392  0.57677262     0.01900
C2019       C  0.07565801  0.72016214  0.59143364     0.30000
C2020       C  0.09191129  0.70896799  0.58487338    -0.19500
C2021       C  0.10771252  0.71725837  0.56377952    -0.28900
C2022       C  0.10511485  0.73542790  0.54842222     0.44000
C2023       C  0.06330364  0.75678733  0.58527646     0.05200
O2024       O  0.06170903  0.71273671  0.61266973    -0.57400
H2025       H  0.09317167  0.69480457  0.59687581     0.18100
O2026       O  0.11859932  0.74287333  0.52696019    -0.64200
H2027       H  0.08802181  0.76104687  0.54325402     0.16600
C2028       C  0.08135688  0.78518872  0.58925215     0.28800
C2029       C  0.07116058  0.80193344  0.59623234    -0.25100
C2030       C  0.04270568  0.79116624  0.59925863    -0.24300
C2031       C  0.02445110  0.76249800  0.59541961     0.40300
C2032       C  0.03483336  0.74553798  0.58867241    -0.26800
O2033       O  0.10931573  0.79674650  0.58682835    -0.58700
H2034       H  0.08586445  0.82367930  0.59912940     0.15900
O2035       O  0.99651391  0.75081100  0.59804483    -0.60100
H2036       H  0.02060636  0.72371624  0.58560444     0.14400
H2037       H  0.13495783  0.76158232  0.52954301     0.46200
H2038       H  0.11395797  0.80579245  0.57104425     0.41600
H2039       H  0.98974295  0.75182180  0.58207344     0.45000
H2040       H  0.07457314  0.72655419  0.62436124     0.36500
C2041       C  0.33986119  0.82997870  0.89732353    -0.27700
C2042       C  0.32226892  0.83936841  0.90412104     0.01900
C2043       C  0.31387292  0.85141866  0.88705740     0.30000
C2044       C  0.32330602  0.85430366  0.86361859    -0.19500
C2045       C  0.34100284  0.84501934  0.85659071    -0.28900
C2046       C  0.34896252  0.83238773  0.87371449     0.44000
C2047       C  0.31404939  0.83787960  0.92934280     0.05200
O2048       O  0.29740478  0.86153507  0.89338905    -0.57400
H2049       H  0.31673107  0.86400833  0.85092106     0.18100
O2050       O  0.36550293  0.82226928  0.86766615    -0.64200
H2051       H  0.34644472  0.82062971  0.91038794     0.16600
C2052       C  0.28661596  0.82021579  0.93689355     0.28800
C2053       C  0.27995954  0.81817567  0.96119362    -0.25100
C2054       C  0.30042020  0.83383060  0.97821078    -0.24300
C2055       C  0.32750023  0.85296743  0.97017936     0.40300
C2056       C  0.33414549  0.85444006  0.94606839    -0.26800
O2057       O  0.26633066  0.80443472  0.92073419    -0.58700
H2058       H  0.25899278  0.80362246  0.96676204     0.15900
O2059       O  0.34788981  0.87012415  0.98575445    -0.60100
H2060       H  0.35517096  0.86863103  0.94036624     0.14400
H2061       H  0.35262730  0.80287842  0.86270911     0.46200
H2062       H  0.26680766  0.78730360  0.91891901     0.41600
H2063       H  0.34598391  0.88647100  0.98750316     0.45000
H2064       H  0.27874250  0.84771628  0.88747596     0.36500
C2065       C  0.47177271  0.87806709  0.64318655    -0.27700
C2066       C  0.46976526  0.86410260  0.66438862     0.01900
C2067       C  0.47651221  0.84344269  0.66392066     0.30000
C2068       C  0.48391006  0.83638271  0.64251631    -0.19500
C2069       C  0.48454388  0.84922788  0.62106678    -0.28900
C2070       C  0.47903060  0.87080923  0.62166152     0.44000
C2071       C  0.45655128  0.86799124  0.68578898     0.05200
O2072       O  0.47301794  0.82788470  0.68370348    -0.57400
H2073       H  0.48754106  0.81950638  0.64264879     0.18100
O2074       O  0.47852498  0.88349473  0.60115103    -0.64200
H2075       H  0.46647056  0.89386114  0.64310438     0.16600
C2076       C  0.46703757  0.86996584  0.70894145     0.28800
C2077       C  0.45071681  0.86694567  0.72883431    -0.25100
C2078       C  0.42439657  0.86300850  0.72595304    -0.24300
C2079       C  0.41514790  0.86398418  0.70306554     0.40300
C2080       C  0.43117561  0.86647592  0.68318083    -0.26800
O2081       O  0.49262935  0.87357567  0.71233735    -0.58700
H2082       H  0.45804068  0.86630630  0.74643772     0.15900
O2083       O  0.38994557  0.86143689  0.69996875    -0.60100
H2084       H  0.42282844  0.86535687  0.66564240     0.14400
H2085       H  0.49637902  0.90130011  0.60081457     0.46200
H2086       H  0.50587475  0.89344340  0.70932793     0.41600
H2087       H  0.37745880  0.84221290  0.69441326     0.45000
H2088       H  0.49176242  0.83212893  0.68802880     0.36500
C2089       C  0.39170513  0.73984861  0.80023185    -0.27700
C2090       C  0.42056371  0.75312149  0.80208848     0.01900
C2091       C  0.43606618  0.78203740  0.80476498     0.30000
C2092       C  0.42307942  0.79730953  0.80350891    -0.19500
C2093       C  0.39442012  0.78419491  0.79994641    -0.28900
C2094       C  0.37859609  0.75503223  0.79958582     0.44000
C2095       C  0.43435659  0.73692664  0.79930555     0.05200
O2096       O  0.46412085  0.79571792  0.80775544    -0.57400
H2097       H  0.43574861  0.81961205  0.80426825     0.18100
O2098       O  0.35042212  0.74107700  0.79737714    -0.64200
H2099       H  0.37927315  0.71765010  0.79816025     0.16600
C2100       C  0.42506303  0.71216801  0.81182962     0.28800
C2101       C  0.43623056  0.69574625  0.80675001    -0.25100
C2102       C  0.45646652  0.70333194  0.78907598    -0.24300
C2103       C  0.46689376  0.72870982  0.77744397     0.40300
C2104       C  0.45575579  0.74523797  0.78250533    -0.26800
O2105       O  0.40497052  0.70378734  0.82895488    -0.58700
H2106       H  0.42805606  0.67623388  0.81588050     0.15900
O2107       O  0.48590505  0.73622061  0.75950288    -0.60100
H2108       H  0.46285986  0.76390485  0.77232183     0.14400
H2109       H  0.34339698  0.74086554  0.81360972     0.46200
H2110       H  0.38852364  0.68711834  0.82235702     0.41600
H2111       H  0.50408526  0.74774964  0.76729537     0.45000
H2112       H  0.46687230  0.79329349  0.82475896     0.36500
C2113       C  0.22609954  0.77988285  0.64954773    -0.27700
C2114       C  0.25392236  0.80063277  0.64679170     0.01900
C2115       C  0.26534624  0.80791781  0.62383450     0.30000
C2116       C  0.24973939  0.79275737  0.60416356    -0.19500
C2117       C  0.22273063  0.77042626  0.60717324    -0.28900
C2118       C  0.21048287  0.76466445  0.62985652     0.44000
C2119       C  0.27214119  0.80936370  0.66772852     0.05200
O2120       O  0.29256547  0.82791513  0.62075394    -0.57400
H2121       H  0.25947649  0.79695273  0.58681021     0.18100
O2122       O  0.18458180  0.74208586  0.63337675    -0.64200
H2123       H  0.21731125  0.77374145  0.66720128     0.16600
C2124       C  0.27140324  0.82635390  0.68562950     0.28800
C2125       C  0.28701776  0.83152731  0.70639723    -0.25100
C2126       C  0.30325953  0.81967804  0.70954091    -0.24300
C2127       C  0.30404651  0.80286415  0.69134603     0.40300
C2128       C  0.28876004  0.79805415  0.67063765    -0.26800
O2129       O  0.25569471  0.83807575  0.68288975    -0.58700
H2130       H  0.28618776  0.84452425  0.72015957     0.15900
O2131       O  0.31862342  0.78990541  0.69404839    -0.60100
H2132       H  0.28900270  0.78447470  0.65711936     0.14400
H2133       H  0.17171257  0.74774907  0.62781070     0.46200
H2134       H  0.23762609  0.82487768  0.69022365     0.41600
H2135       H  0.30564396  0.77209959  0.70184849     0.45000
H2136       H  0.29274245  0.84542261  0.61934023     0.36500
C2137       C  0.11842448  0.48515658  0.89725217    -0.27700
C2138       C  0.13992924  0.48251927  0.90645030     0.01900
C2139       C  0.16059599  0.48482425  0.89103956     0.30000
C2140       C  0.15931561  0.48921269  0.86682809    -0.19500
C2141       C  0.13790777  0.49203017  0.85756124    -0.28900
C2142       C  0.11753304  0.49029693  0.87306683     0.44000
C2143       C  0.14162395  0.47911444  0.93231595     0.05200
O2144       O  0.18247041  0.48343514  0.89953170    -0.57400
H2145       H  0.17553437  0.49097752  0.85532248     0.18100
O2146       O  0.09624856  0.49275311  0.86472051    -0.64200
H2147       H  0.10233705  0.48338674  0.90892084     0.16600
C2148       C  0.14106214  0.49789105  0.94834087     0.28800
C2149       C  0.14395005  0.49542482  0.97257559    -0.25100
C2150       C  0.14788381  0.47459103  0.98149097    -0.24300
C2151       C  0.14816744  0.45552907  0.96551424     0.40300
C2152       C  0.14488955  0.45780401  0.94107868    -0.26800
O2153       O  0.13842873  0.51924717  0.94044866    -0.58700
H2154       H  0.14388409  0.51056580  0.98437481     0.15900
O2155       O  0.15091374  0.43431289  0.97356369    -0.60100
H2156       H  0.14502142  0.44298570  0.92892164     0.14400
H2157       H  0.10241430  0.51248396  0.86690643     0.46200
H2158       H  0.15759221  0.53500983  0.93838442     0.41600
H2159       H  0.17063851  0.44056082  0.97110621     0.45000
H2160       H  0.19642893  0.50259415  0.90432105     0.36500
C2161       C  0.13336036  0.57293243  0.68309177    -0.27700
C2162       C  0.13327904  0.59711747  0.68805461     0.01900
C2163       C  0.13322480  0.60497398  0.71180380     0.30000
C2164       C  0.13495050  0.58951775  0.73027092    -0.19500
C2165       C  0.13741899  0.56662196  0.72522160    -0.28900
C2166       C  0.13563284  0.55778993  0.70146360     0.44000
C2167       C  0.13666641  0.61547939  0.66822336     0.05200
O2168       O  0.13189953  0.62792743  0.71699726    -0.57400
H2169       H  0.13601239  0.59643406  0.74845349     0.18100
O2170       O  0.13632870  0.53453483  0.69603496    -0.64200
H2171       H  0.13319093  0.56661236  0.66483582     0.16600
C2172       C  0.16111652  0.64134513  0.66612262     0.28800
C2173       C  0.16596993  0.65711460  0.64574124    -0.25100
C2174       C  0.14711390  0.64712530  0.62674580    -0.24300
C2175       C  0.12218120  0.62148833  0.62922934     0.40300
C2176       C  0.11713161  0.60592600  0.64991343    -0.26800
O2177       O  0.18117778  0.65066601  0.68326596    -0.58700
H2178       H  0.18538718  0.67656849  0.64433480     0.15900
O2179       O  0.10289264  0.61111881  0.61142044    -0.60100
H2180       H  0.09834479  0.58589931  0.65133043     0.14400
H2181       H  0.15537524  0.54132532  0.69035013     0.46200
H2182       H  0.19276012  0.64293126  0.67880866     0.41600
H2183       H  0.10616087  0.59784728  0.60262827     0.45000
H2184       H  0.15047654  0.64189704  0.72303935     0.36500
C2185       C  0.19763377  0.65159800  0.81699908    -0.27700
C2186       C  0.22614353  0.66792237  0.81286296     0.01900
C2187       C  0.24122260  0.65499561  0.80845738     0.30000
C2188       C  0.22749917  0.62624553  0.80627241    -0.19500
C2189       C  0.19873346  0.60993398  0.80882160    -0.28900
C2190       C  0.18395210  0.62268663  0.81539723     0.44000
C2191       C  0.23941529  0.69793195  0.80857448     0.05200
O2192       O  0.26916301  0.67046507  0.80459191    -0.57400
H2193       H  0.23915926  0.61677194  0.80118459     0.18100
O2194       O  0.15579676  0.60738480  0.81768621    -0.64200
H2195       H  0.18577184  0.66133810  0.82011722     0.16600
C2196       C  0.23756767  0.70709540  0.78585225     0.28800
C2197       C  0.25508087  0.73475883  0.77958696    -0.25100
C2198       C  0.27428378  0.75378061  0.79589240    -0.24300
C2199       C  0.27455718  0.74514479  0.81929188     0.40300
C2200       C  0.25746982  0.71720033  0.82539565    -0.26800
O2201       O  0.21985548  0.68875866  0.76916420    -0.58700
H2202       H  0.25457215  0.74111790  0.76155664     0.15900
O2203       O  0.29334945  0.76318591  0.83552790    -0.60100
H2204       H  0.25928987  0.71031995  0.84284361     0.14400
H2205       H  0.15239273  0.60264414  0.83479437     0.46200
H2206       H  0.23059312  0.68203839  0.76063544     0.41600
H2207       H  0.28404636  0.77173394  0.84362007     0.45000
H2208       H  0.27132657  0.67406881  0.78724670     0.36500
C2209       C  0.27490918  0.52061407  0.79220814    -0.27700
C2210       C  0.28858736  0.53982695  0.81058733     0.01900
C2211       C  0.27365574  0.54774544  0.82515264     0.30000
C2212       C  0.24620482  0.53871387  0.81972471    -0.19500
C2213       C  0.23322986  0.52138830  0.80007982    -0.28900
C2214       C  0.24727786  0.51121914  0.78699109     0.44000
C2215       C  0.31906269  0.55552890  0.81098998     0.05200
O2216       O  0.28636783  0.56599219  0.84355045    -0.57400
H2217       H  0.23552231  0.54657453  0.83000083     0.18100
O2218       O  0.23537811  0.49489560  0.76734066    -0.64200
H2219       H  0.28629973  0.51467602  0.78063831     0.16600
C2220       C  0.33411808  0.54250613  0.81468053     0.28800
C2221       C  0.36260717  0.55689528  0.81022100    -0.25100
C2222       C  0.37599654  0.58390443  0.80136150    -0.24300
C2223       C  0.36121583  0.59742585  0.79908636     0.40300
C2224       C  0.33299537  0.58330010  0.80406545    -0.26800
O2225       O  0.32099335  0.51554240  0.82191894    -0.58700
H2226       H  0.37376962  0.54625311  0.81192882     0.15900
O2227       O  0.37385429  0.62390279  0.79062030    -0.60100
H2228       H  0.32159716  0.59350305  0.80098996     0.14400
H2229       H  0.22676793  0.47568893  0.77317502     0.46200
H2230       H  0.31846518  0.50465611  0.80726586     0.41600
H2231       H  0.38054812  0.63585816  0.80495392     0.45000
H2232       H  0.28381310  0.55434598  0.85754706     0.36500
C2233       C  0.35191356  0.51504085  0.39853735    -0.27700
C2234       C  0.32608766  0.49173509  0.40378095     0.01900
C2235       C  0.31065538  0.47309968  0.38552498     0.30000
C2236       C  0.32056654  0.47839190  0.36222627    -0.19500
C2237       C  0.34603812  0.50217752  0.35664195    -0.28900
C2238       C  0.36201965  0.52030444  0.37520591     0.44000
C2239       C  0.31506314  0.48719821  0.42823879     0.05200
O2240       O  0.28565219  0.44978182  0.39024207    -0.57400
H2241       H  0.30789575  0.46399807  0.34842357     0.18100
O2242       O  0.38718820  0.54352131  0.37077574    -0.64200
H2243       H  0.36402124  0.52950564  0.41251114     0.16600
C2244       C  0.32945208  0.48444433  0.44716385     0.28800
C2245       C  0.31863307  0.48010229  0.47014779    -0.25100
C2246       C  0.29351204  0.47872314  0.47482882    -0.24300
C2247       C  0.27904385  0.48135094  0.45571423     0.40300
C2248       C  0.28982380  0.48544265  0.43263548    -0.26800
O2249       O  0.35361659  0.48499048  0.44321398    -0.58700
H2250       H  0.33022780  0.47803983  0.48437834     0.15900
O2251       O  0.25430795  0.47971087  0.45924857    -0.60100
H2252       H  0.27857665  0.48754671  0.41811132     0.14400
H2253       H  0.40067187  0.53742468  0.37170907     0.46200
H2254       H  0.36847479  0.50363150  0.44831809     0.41600
H2255       H  0.25903983  0.49907149  0.46127865     0.45000
H2256       H  0.29014433  0.43621381  0.39633477     0.36500
C2257       C  0.22902453  0.57192060  0.51866622    -0.27700
C2258       C  0.20044259  0.55889881  0.52197717     0.01900
C2259       C  0.18472660  0.53002316  0.52443923     0.30000
C2260       C  0.19794852  0.51487894  0.52560134    -0.19500
C2261       C  0.22692846  0.52835330  0.52485840    -0.28900
C2262       C  0.24229086  0.55693184  0.52003061     0.44000
C2263       C  0.18875327  0.57626986  0.52801232     0.05200
O2264       O  0.15661450  0.51667278  0.52697403    -0.57400
H2265       H  0.18563187  0.49292730  0.52905849     0.18100
O2266       O  0.27050608  0.57080431  0.51829923    -0.64200
H2267       H  0.24136770  0.59415258  0.51679489     0.16600
C2268       C  0.18625220  0.58150150  0.55208991     0.28800
C2269       C  0.18036377  0.60179364  0.55835494    -0.25100
C2270       C  0.17635779  0.61693563  0.54087463    -0.24300
C2271       C  0.17709572  0.61049728  0.51669206     0.40300
C2272       C  0.18368100  0.59051992  0.51038851    -0.26800
O2273       O  0.19060413  0.56754800  0.56969248    -0.58700
H2274       H  0.17953950  0.60615765  0.57702787     0.15900
O2275       O  0.17269980  0.62444393  0.49912495    -0.60100
H2276       H  0.18567235  0.58676593  0.49178913     0.14400
H2277       H  0.27442629  0.57137806  0.50104442     0.46200
H2278       H  0.21075536  0.57837115  0.57271016     0.41600
H2279       H  0.19111332  0.64086006  0.49570559     0.45000
H2280       H  0.15321636  0.51459656  0.54436796     0.36500
C2281       C  0.36586541  0.51968335  0.70631416    -0.27700
C2282       C  0.37222584  0.52619643  0.68223449     0.01900
C2283       C  0.39815115  0.54886232  0.67580792     0.30000
C2284       C  0.41681965  0.56541593  0.69342668    -0.19500
C2285       C  0.41009845  0.55972665  0.71758118    -0.28900
C2286       C  0.38467290  0.53616211  0.72399916     0.44000
C2287       C  0.35061248  0.51223781  0.66398980     0.05200
O2288       O  0.40420327  0.55666074  0.65244675    -0.57400
H2289       H  0.43604574  0.58364315  0.68816405     0.18100
O2290       O  0.37677262  0.53074212  0.74738603    -0.64200
H2291       H  0.34575159  0.50259307  0.71141187     0.16600
C2292       C  0.35441157  0.49896499  0.64450382     0.28800
C2293       C  0.33754052  0.49238894  0.62450662    -0.25100
C2294       C  0.31699844  0.49918956  0.62358688    -0.24300
C2295       C  0.31142684  0.50987659  0.64409666     0.40300
C2296       C  0.32821531  0.51626639  0.66416202    -0.26800
O2297       O  0.37507377  0.49314930  0.64468526    -0.58700
H2298       H  0.34156372  0.48332568  0.60917599     0.15900
O2299       O  0.29105128  0.51605780  0.64417400    -0.60100
H2300       H  0.32504390  0.52635494  0.67919475     0.14400
H2301       H  0.38038681  0.51608351  0.75205993     0.46200
H2302       H  0.38841687  0.50505320  0.63233204     0.41600
H2303       H  0.30014577  0.53546657  0.63873238     0.45000
H2304       H  0.41897647  0.55306079  0.64800563     0.36500
C2305       C  0.19638841  0.47340395  0.68452943    -0.27700
C2306       C  0.17307501  0.45633171  0.67067629     0.01900
C2307       C  0.14676748  0.44880922  0.67932228     0.30000
C2308       C  0.14418949  0.45922298  0.70126249    -0.19500
C2309       C  0.16771841  0.47769079  0.71445398    -0.28900
C2310       C  0.19393276  0.48424261  0.70612106     0.44000
C2311       C  0.17732636  0.44982742  0.64609935     0.05200
O2312       O  0.12359185  0.43122587  0.66646541    -0.57400
H2313       H  0.12384489  0.45361844  0.70753364     0.18100
O2314       O  0.21730380  0.50095735  0.71908103    -0.64200
H2315       H  0.21677117  0.47935712  0.67806436     0.16600
C2316       C  0.17181243  0.46196274  0.62686538     0.28800
C2317       C  0.18277411  0.46248674  0.60445687    -0.25100
C2318       C  0.19942602  0.45121527  0.60088811    -0.24300
C2319       C  0.20282178  0.43680354  0.61950345     0.40300
C2320       C  0.19189883  0.43632744  0.64205558    -0.26800
O2321       O  0.15917601  0.47675290  0.63053091    -0.58700
H2322       H  0.18058245  0.47420618  0.59039988     0.15900
O2323       O  0.21993837  0.42662277  0.61675912    -0.60100
H2324       H  0.19662844  0.42729978  0.65681923     0.14400
H2325       H  0.22565722  0.51944165  0.71169199     0.46200
H2326       H  0.14088378  0.46583224  0.62279031     0.41600
H2327       H  0.20747769  0.40654099  0.61410391     0.45000
H2328       H  0.11589302  0.44250684  0.66117125     0.36500
C2329       C  0.39495906  0.67804936  0.52680087    -0.27700
C2330       C  0.40524058  0.66036210  0.52811577     0.01900
C2331       C  0.43386437  0.67150892  0.52891578     0.30000
C2332       C  0.45179180  0.70013369  0.53022865    -0.19500
C2333       C  0.44138642  0.71786535  0.53106229    -0.28900
C2334       C  0.41280074  0.70663843  0.52802189     0.44000
C2335       C  0.38595797  0.63081232  0.53275317     0.05200
O2336       O  0.44435970  0.65454844  0.53002323    -0.57400
H2337       H  0.47367523  0.70826037  0.53232542     0.18100
O2338       O  0.40187774  0.72325917  0.52760928    -0.64200
H2339       H  0.37289467  0.66957490  0.52608912     0.16600
C2340       C  0.37326283  0.62265460  0.55513325     0.28800
C2341       C  0.35494862  0.59481717  0.55983217    -0.25100
C2342       C  0.34861406  0.57451376  0.54235371    -0.24300
C2343       C  0.36162038  0.58273054  0.51991859     0.40300
C2344       C  0.38036502  0.61079371  0.51532061    -0.26800
O2345       O  0.37918233  0.64179890  0.57274693    -0.58700
H2346       H  0.34553304  0.58919397  0.57730255     0.15900
O2347       O  0.35593244  0.56368897  0.50230585    -0.60100
H2348       H  0.39020848  0.61699041  0.49805146     0.14400
H2349       H  0.40373399  0.72942750  0.51087337     0.46200
H2350       H  0.36448928  0.64626814  0.57169689     0.41600
H2351       H  0.34077189  0.56292269  0.49294586     0.45000
H2352       H  0.44452585  0.65067490  0.54718667     0.36500
C2353       C  0.23515255  0.29937149  0.57697485    -0.27700
C2354       C  0.23090612  0.31955743  0.58706296     0.01900
C2355       C  0.21231356  0.31237412  0.60610960     0.30000
C2356       C  0.19751978  0.28516524  0.61427216    -0.19500
C2357       C  0.20095777  0.26450810  0.60384733    -0.28900
C2358       C  0.22047129  0.27203923  0.58527818     0.44000
C2359       C  0.24401129  0.34755925  0.57665665     0.05200
O2360       O  0.20709685  0.33146655  0.61580994    -0.57400
H2361       H  0.18268830  0.28015059  0.62846222     0.18100
O2362       O  0.22495796  0.25284728  0.57473800    -0.64200
H2363       H  0.24947518  0.30470727  0.56230164     0.02200
C2364       C  0.26255437  0.37103458  0.58995790     0.28800
C2365       C  0.27093483  0.39742858  0.58149564    -0.25100
C2366       C  0.26096253  0.40096971  0.55976046    -0.24300
C2367       C  0.24363043  0.37741111  0.54582896     0.40300
C2368       C  0.23545703  0.35099958  0.55426731    -0.26800
O2369       O  0.27171309  0.36834947  0.61171361    -0.58700
H2370       H  0.28441833  0.41512859  0.59249200     0.15900
O2371       O  0.23453311  0.37991204  0.52397806    -0.60100
H2372       H  0.22134680  0.33306956  0.54377338     0.14400
H2373       H  0.21289205  0.24633048  0.56050438     0.46200
H2374       H  0.28717918  0.36549404  0.60816798     0.41600
H2375       H  0.21548453  0.37583449  0.52670315     0.45000
H2376       H  0.21748468  0.33725597  0.63098438     0.36500
C2377       C  0.87810245  0.64080318  0.93027158    -0.27700
C2378       C  0.89671465  0.64761219  0.91145413     0.01900
C2379       C  0.90222198  0.62776163  0.90255602     0.30000
C2380       C  0.88862907  0.60115037  0.91230165    -0.19500
C2381       C  0.86920187  0.59395375  0.93076139    -0.28900
C2382       C  0.86410359  0.61427578  0.93969484     0.44000
C2383       C  0.90817456  0.67487512  0.90025677     0.05200
O2384       O  0.92011202  0.63388898  0.88388828    -0.57400
H2385       H  0.89264054  0.58591271  0.90486621     0.18100
O2386       O  0.84489721  0.60838531  0.95719230    -0.64200
H2387       H  0.87367712  0.65597940  0.93718419     0.16600
C2388       C  0.89020763  0.68177459  0.88967284     0.28800
C2389       C  0.90019415  0.70862857  0.88200330    -0.25100
C2390       C  0.92795858  0.72937940  0.88538260    -0.24300
C2391       C  0.94630000  0.72222747  0.89507989     0.40300
C2392       C  0.93633691  0.69493543  0.90224470    -0.26800
O2393       O  0.86263629  0.66243341  0.88725408    -0.58700
H2394       H  0.88572214  0.71347784  0.87436238     0.15900
O2395       O  0.97348570  0.74189590  0.89889640    -0.60100
H2396       H  0.95026063  0.68979017  0.91056973     0.14400
H2397       H  0.82765805  0.60349698  0.94865402     0.46200
H2398       H  0.85328536  0.66657740  0.90012368     0.41600
H2399       H  0.97423520  0.74849026  0.91539641     0.45000
H2400       H  0.90912719  0.63152246  0.86943138     0.36500
C2401       C  0.83261404  0.47502161  0.82776087    -0.27700
C2402       C  0.85970974  0.48042691  0.82737649     0.01900
C2403       C  0.87720236  0.49407276  0.84675133     0.30000
C2404       C  0.86695864  0.50074249  0.86676967    -0.19500
C2405       C  0.83926035  0.49375243  0.86778889    -0.28900
C2406       C  0.82227514  0.48142360  0.84775146     0.44000
C2407       C  0.86768744  0.46840895  0.80785126     0.05200
O2408       O  0.90419836  0.50082485  0.84622925    -0.57400
H2409       H  0.88047131  0.51056995  0.88185071     0.18100
O2410       O  0.79507607  0.47396832  0.84798964    -0.64200
H2411       H  0.81886700  0.46428212  0.81299533     0.16600
C2412       C  0.87163417  0.44628346  0.81244544     0.28800
C2413       C  0.87063912  0.42944951  0.79372412    -0.25100
C2414       C  0.86581918  0.43451131  0.77046288    -0.24300
C2415       C  0.86448844  0.45804578  0.76556670     0.40300
C2416       C  0.86534722  0.47482675  0.78425593    -0.26800
O2417       O  0.87369021  0.43928599  0.83532047    -0.58700
H2418       H  0.87119880  0.41106249  0.79763846     0.15900
O2419       O  0.85915203  0.46296091  0.74296315    -0.60100
H2420       H  0.86200510  0.49158609  0.78053070     0.14400
H2421       H  0.78483933  0.45476079  0.85401630     0.46200
H2422       H  0.85441777  0.42663048  0.84064323     0.41600
H2423       H  0.87743480  0.47329955  0.73508069     0.45000
H2424       H  0.90546189  0.48857919  0.85800542     0.36500
C2425       C  0.95549840  0.38886391  0.75797080    -0.27700
C2426       C  0.97707424  0.40925502  0.74418119     0.01900
C2427       C  0.97095625  0.41572091  0.72179354     0.30000
C2428       C  0.94354244  0.40270043  0.71388444    -0.19500
C2429       C  0.92168439  0.38300223  0.72800799    -0.28900
C2430       C  0.92802479  0.37571724  0.75006445     0.44000
C2431       C  0.00552625  0.42549038  0.75402205     0.05200
O2432       O  0.99175400  0.43476717  0.70749588    -0.57400
H2433       H  0.93935982  0.40844895  0.69678899     0.18100
O2434       O  0.90744058  0.35718611  0.76480637    -0.64200
H2435       H  0.95985666  0.38386651  0.77533624     0.16600
C2436       C  0.01694449  0.45348134  0.75986572     0.28800
C2437       C  0.04415486  0.46925123  0.76794125    -0.25100
C2438       C  0.06076207  0.45768173  0.77061441    -0.24300
C2439       C  0.04897453  0.42929680  0.76546765     0.40300
C2440       C  0.02154578  0.41344949  0.75727552    -0.26800
O2441       O  0.00170387  0.46577232  0.75745530    -0.58700
H2442       H  0.05231717  0.49084376  0.77194966     0.15900
O2443       O  0.06433649  0.41709427  0.76731908    -0.60100
H2444       H  0.01297549  0.39187058  0.75292184     0.14400
H2445       H  0.90547813  0.33912936  0.76110607     0.46200
H2446       H  0.99181535  0.46256772  0.77278647     0.41600
H2447       H  0.05965638  0.40813367  0.78312597     0.45000
H2448       H  0.99132839  0.45194472  0.70934782     0.36500
C2449       C  0.78210834  0.38159649  0.97251471    -0.27700
C2450       C  0.77087823  0.36312164  0.95323897     0.01900
C2451       C  0.77289311  0.37357025  0.93026698     0.30000
C2452       C  0.78415285  0.40174531  0.92690692    -0.19500
C2453       C  0.79381787  0.42031906  0.94620084    -0.28900
C2454       C  0.79354484  0.41014100  0.96912300     0.44000
C2455       C  0.75574410  0.33281509  0.95662773     0.05200
O2456       O  0.76293599  0.35617567  0.91097473    -0.57400
H2457       H  0.78456835  0.40898491  0.90903250     0.18100
O2458       O  0.80328221  0.42759159  0.98836579    -0.64200
H2459       H  0.78101533  0.37378269  0.99026763     0.16600
C2460       C  0.76972772  0.31902772  0.96162246     0.28800
C2461       C  0.75583376  0.29017136  0.95974976    -0.25100
C2462       C  0.72786247  0.27459440  0.95293517    -0.24300
C2463       C  0.71350062  0.28850431  0.94950747     0.40300
C2464       C  0.72749107  0.31731029  0.95126152    -0.26800
O2465       O  0.79746790  0.33369447  0.96637496    -0.58700
H2466       H  0.76745394  0.28015741  0.96250733     0.15900
O2467       O  0.68619019  0.27443007  0.94316729    -0.60100
H2468       H  0.71651184  0.32775394  0.94734074     0.14400
H2469       H  0.78704020  0.42768650  0.99485446     0.46200
H2470       H  0.79890699  0.33219483  0.98379071     0.41600
H2471       H  0.67584632  0.26907568  0.95840536     0.45000
H2472       H  0.77756688  0.35223941  0.90684091     0.36500
C2473       C  0.81428011  0.30342914  0.83244538    -0.27700
C2474       C  0.81070037  0.27704551  0.83103371     0.01900
C2475       C  0.81607118  0.26827413  0.80928341     0.30000
C2476       C  0.82178818  0.28436022  0.78885456    -0.19500
C2477       C  0.82271175  0.30961117  0.78973902    -0.28900
C2478       C  0.82052682  0.31981217  0.81213421     0.44000
C2479       C  0.79582203  0.25701730  0.85047752     0.05200
O2480       O  0.81382880  0.24306563  0.80747637    -0.57400
H2481       H  0.82415770  0.27633356  0.77207263     0.18100
O2482       O  0.82230239  0.34478843  0.81421258    -0.64200
H2483       H  0.81012649  0.31055990  0.84894701     0.16600
C2484       C  0.80363357  0.26327306  0.87455047     0.28800
C2485       C  0.78568310  0.24616680  0.89256961    -0.25100
C2486       C  0.75975488  0.22323494  0.88678796    -0.24300
C2487       C  0.75276104  0.21618340  0.86279494     0.40300
C2488       C  0.77075131  0.23286530  0.84490817    -0.26800
O2489       O  0.82828174  0.28641527  0.88056674    -0.58700
H2490       H  0.79104202  0.25211076  0.91101588     0.15900
O2491       O  0.72719163  0.19444896  0.85668776    -0.60100
H2492       H  0.76403480  0.22799960  0.82658538     0.14400
H2493       H  0.84227698  0.35854778  0.81597337     0.46200
H2494       H  0.82340792  0.29945232  0.88756259     0.41600
H2495       H  0.73019862  0.17927939  0.85224073     0.45000
H2496       H  0.83247114  0.24667289  0.81111081     0.36500
C2497       C  0.77585303  0.09241601  0.89595611    -0.27700
C2498       C  0.75388886  0.07690188  0.91161589     0.01900
C2499       C  0.74842950  0.05084189  0.91888453     0.30000
C2500       C  0.76495413  0.04070384  0.91056086    -0.19500
C2501       C  0.78727832  0.05632752  0.89497743    -0.28900
C2502       C  0.79248168  0.08250321  0.88770076     0.44000
C2503       C  0.73803647  0.08910375  0.92113595     0.05200
O2504       O  0.72723439  0.03529901  0.93437967    -0.57400
H2505       H  0.76046020  0.02068696  0.91660696     0.18100
O2506       O  0.81382083  0.09877012  0.87255226    -0.64200
H2507       H  0.78037310  0.11259092  0.89031705     0.16600
C2508       C  0.75008209  0.11053471  0.93800677     0.28800
C2509       C  0.73642373  0.12403953  0.94519655    -0.25100
C2510       C  0.71069902  0.11697897  0.93549889    -0.24300
C2511       C  0.69821727  0.09480237  0.91904101     0.40300
C2512       C  0.71183769  0.08099086  0.91212465    -0.26800
O2513       O  0.77541443  0.11857370  0.94748948    -0.58700
H2514       H  0.74657151  0.14076274  0.95794333     0.15900
O2515       O  0.67301847  0.08672544  0.90924866    -0.60100
H2516       H  0.70234102  0.06452841  0.89906867     0.14400
H2517       H  0.82941414  0.11145952  0.88300898     0.46200
H2518       H  0.78891076  0.13412040  0.93743527     0.41600
H2519       H  0.67721153  0.09674180  0.89393063     0.45000
H2520       H  0.73562692  0.04054728  0.95042221     0.36500
C2521       C  0.64776239  0.25179389  0.69424666    -0.27700
C2522       C  0.66192562  0.23795963  0.69012449     0.01900
C2523       C  0.64682422  0.20936014  0.68603430     0.30000
C2524       C  0.61806232  0.19459031  0.68806984    -0.19500
C2525       C  0.60384209  0.20794172  0.69442365    -0.28900
C2526       C  0.61892468  0.23707441  0.69630223     0.44000
C2527       C  0.69210297  0.25267467  0.69394739     0.05200
O2528       O  0.66015527  0.19540883  0.68159281    -0.57400
H2529       H  0.60710843  0.17234865  0.68616894     0.18100
O2530       O  0.60607177  0.25124773  0.70189463    -0.64200
H2531       H  0.65921692  0.27386993  0.69740661     0.16600
C2532       C  0.71080167  0.27361013  0.67854654     0.28800
C2533       C  0.73900094  0.28900641  0.68423918    -0.25100
C2534       C  0.74859994  0.28425383  0.70559163    -0.24300
C2535       C  0.72997093  0.26271769  0.72055369     0.40300
C2536       C  0.70201536  0.24696676  0.71458454    -0.26800
O2537       O  0.70164423  0.27935622  0.65813524    -0.58700
H2538       H  0.75309432  0.30573214  0.67269972     0.15900
O2539       O  0.73871500  0.25764597  0.74155080    -0.60100
H2540       H  0.68777557  0.23098825  0.72664120     0.14400
H2541       H  0.59932433  0.25395981  0.68653983     0.46200
H2542       H  0.69840244  0.29439685  0.66254152     0.41600
H2543       H  0.74739483  0.24694144  0.73705720     0.45000
H2544       H  0.66194470  0.19545419  0.66403869     0.36500
C2545       C  0.58786568  0.11642191  0.85006119    -0.27700
C2546       C  0.60190811  0.11994887  0.82849549     0.01900
C2547       C  0.62973212  0.12705335  0.82922341     0.30000
C2548       C  0.64402767  0.13453718  0.85082605    -0.19500
C2549       C  0.63056537  0.13368352  0.87206730    -0.28900
C2550       C  0.60182626  0.12259230  0.87177263     0.44000
C2551       C  0.58931957  0.12177369  0.80592855     0.05200
O2552       O  0.64368894  0.12873964  0.80871094    -0.57400
H2553       H  0.66595180  0.14219161  0.85084297     0.18100
O2554       O  0.58778030  0.12076827  0.89226833    -0.64200
H2555       H  0.56659280  0.11115398  0.85011939     0.16600
C2556       C  0.56149455  0.10281234  0.79997822     0.28800
C2557       C  0.54924243  0.10825719  0.78078328    -0.25100
C2558       C  0.56428847  0.13269551  0.76768534    -0.24300
C2559       C  0.59249527  0.15064045  0.77267381     0.40300
C2560       C  0.60464586  0.14525520  0.79168894    -0.26800
O2561       O  0.54617015  0.07907486  0.81287785    -0.58700
H2562       H  0.52759407  0.09410369  0.77697789     0.15900
O2563       O  0.60819186  0.17416593  0.75961073    -0.60100
H2564       H  0.62587191  0.16041953  0.79603960     0.14400
H2565       H  0.57983361  0.10149568  0.89773583     0.46200
H2566       H  0.53172845  0.08105862  0.82101302     0.41600
H2567       H  0.61607343  0.16863298  0.74647652     0.45000
H2568       H  0.63800909  0.10942208  0.80478702     0.36500
C2569       C  0.42899313  0.01615669  0.72513056    -0.27700
C2570       C  0.41857104  0.01020678  0.74843569     0.01900
C2571       C  0.42274748  0.03213210  0.76332972     0.30000
C2572       C  0.43748921  0.05942515  0.75499336    -0.19500
C2573       C  0.44861820  0.06546969  0.73187249    -0.28900
C2574       C  0.44385249  0.04338914  0.71682674     0.44000
C2575       C  0.40455262  0.98122897  0.75720979     0.05200
O2576       O  0.41288800  0.02713250  0.78620487    -0.57400
H2577       H  0.44094863  0.07598527  0.76693476     0.18100
O2578       O  0.45393304  0.04814720  0.69402677    -0.64200
H2579       H  0.42620645  0.99963442  0.71346150     0.16600
C2580       C  0.38160952  0.95967865  0.74525786     0.28800
C2581       C  0.37000361  0.93226229  0.75280997    -0.25100
C2582       C  0.38113882  0.92561199  0.77213088    -0.24300
C2583       C  0.40364059  0.94742873  0.78454150     0.40300
C2584       C  0.41511503  0.97481732  0.77701524    -0.26800
O2585       O  0.37007537  0.96530827  0.72640948    -0.58700
H2586       H  0.35259160  0.91609743  0.74307848     0.15900
O2587       O  0.41502854  0.94230441  0.80379531    -0.60100
H2588       H  0.43282739  0.99109577  0.78637849     0.14400
H2589       H  0.43990386  0.04917902  0.68436657     0.46200
H2590       H  0.37590334  0.95937185  0.71207653     0.41600
H2591       H  0.40498089  0.94349429  0.81778638     0.45000
H2592       H  0.39494799  0.02611264  0.78541685     0.36500
C2593       C  0.58226055  0.33844931  0.69229949    -0.27700
C2594       C  0.55339132  0.32273961  0.69025012     0.01900
C2595       C  0.53872149  0.33652969  0.68873322     0.30000
C2596       C  0.55265884  0.36534938  0.69110234    -0.19500
C2597       C  0.58120129  0.38072233  0.69514472    -0.28900
C2598       C  0.59613002  0.36720676  0.69486691     0.44000
C2599       C  0.53873879  0.29228519  0.69336380     0.05200
O2600       O  0.51054659  0.32187748  0.68653705    -0.57400
H2601       H  0.54086581  0.37543809  0.69161753     0.18100
O2602       O  0.62403881  0.38174799  0.69888256    -0.64200
H2603       H  0.59389507  0.32825746  0.69364939     0.16600
C2604       C  0.54502454  0.27560629  0.67926534     0.28800
C2605       C  0.53377930  0.24769393  0.68499283    -0.25100
C2606       C  0.51654957  0.23619281  0.70490319    -0.24300
C2607       C  0.50953151  0.25254126  0.71848305     0.40300
C2608       C  0.52038783  0.28025796  0.71257274    -0.26800
O2609       O  0.56310989  0.28668060  0.66057094    -0.58700
H2610       H  0.53982928  0.23544975  0.67472569     0.15900
O2611       O  0.49336999  0.24204284  0.73840429    -0.60100
H2612       H  0.51568663  0.29282466  0.72387443     0.14400
H2613       H  0.63260740  0.38542880  0.68287032     0.46200
H2614       H  0.55175427  0.28589159  0.64690601     0.41600
H2615       H  0.47412103  0.23191446  0.73246910     0.45000
H2616       H  0.50699224  0.31681263  0.66947297     0.36500
C2617       C  0.69630163  0.50480422  0.83075639    -0.27700
C2618       C  0.71383436  0.53339839  0.83321380     0.01900
C2619       C  0.71444094  0.55090444  0.81532475     0.30000
C2620       C  0.69785659  0.53953700  0.79500619    -0.19500
C2621       C  0.68102969  0.51072269  0.79214590    -0.28900
C2622       C  0.68013756  0.49342027  0.81049336     0.44000
C2623       C  0.73285253  0.54355749  0.85370857     0.05200
O2624       O  0.73170965  0.57894326  0.81721588    -0.57400
H2625       H  0.69900078  0.55320666  0.78108194     0.18100
O2626       O  0.66418850  0.46523605  0.80853783    -0.64200
H2627       H  0.69590327  0.49111564  0.84433348     0.16600
C2628       C  0.72210760  0.53896121  0.87697266     0.28800
C2629       C  0.73742811  0.53781105  0.89586437    -0.25100
C2630       C  0.76356281  0.54156132  0.89181471    -0.24300
C2631       C  0.77559505  0.54943113  0.86910538     0.40300
C2632       C  0.76021681  0.55046653  0.85016336    -0.26800
O2633       O  0.69544700  0.53225265  0.88093274    -0.58700
H2634       H  0.72785625  0.53139603  0.91323132     0.15900
O2635       O  0.80084853  0.55256074  0.86461005    -0.60100
H2636       H  0.76857369  0.55370116  0.83230541     0.14400
H2637       H  0.64592776  0.46025644  0.81511426     0.46200
H2638       H  0.69573994  0.54976426  0.87908451     0.41600
H2639       H  0.81452847  0.57114518  0.87083195     0.45000
H2640       H  0.72018425  0.58573257  0.82402916     0.36500
C2641       C  0.74471852  0.46430973  0.71962798    -0.27700
C2642       C  0.73947256  0.44522056  0.70129091     0.01900
C2643       C  0.71702601  0.43744662  0.68595863     0.30000
C2644       C  0.69912612  0.44709245  0.69009368    -0.19500
C2645       C  0.70348695  0.46496059  0.70919572    -0.28900
C2646       C  0.72695710  0.47426932  0.72357955     0.44000
C2647       C  0.75527025  0.43098126  0.70017778     0.05200
O2648       O  0.71159829  0.41928187  0.66762341    -0.57400
H2649       H  0.68101472  0.43958362  0.67899407     0.18100
O2650       O  0.73103860  0.49063643  0.74304733    -0.64200
H2651       H  0.76161706  0.47015884  0.73183464     0.16600
C2652       C  0.78412264  0.44567111  0.69747800     0.28800
C2653       C  0.79861206  0.43180501  0.69879080    -0.25100
C2654       C  0.78475690  0.40321973  0.70320617    -0.24300
C2655       C  0.75562687  0.38841552  0.70488540     0.40300
C2656       C  0.74125751  0.40230271  0.70340129    -0.26800
O2657       O  0.79829492  0.47355794  0.69342495    -0.58700
H2658       H  0.82089123  0.44373354  0.69728814     0.15900
O2659       O  0.74094799  0.36053801  0.70902328    -0.60100
H2660       H  0.71904134  0.39069793  0.70562612     0.14400
H2661       H  0.74268093  0.50981622  0.73725620     0.46200
H2662       H  0.80596347  0.48223167  0.70908682     0.41600
H2663       H  0.73641254  0.35181466  0.69303020     0.45000
H2664       H  0.72264642  0.43092248  0.65402086     0.36500
C2665       C  0.56975319  0.60158672  0.76521660    -0.27700
C2666       C  0.56027181  0.57990461  0.74861464     0.01900
C2667       C  0.53471001  0.57037163  0.73742167     0.30000
C2668       C  0.51862146  0.58164038  0.74343449    -0.19500
C2669       C  0.52746118  0.60267702  0.76063817    -0.28900
C2670       C  0.55349227  0.61288251  0.77135491     0.44000
C2671       C  0.57510267  0.56488656  0.74486503     0.05200
O2672       O  0.52475833  0.54923077  0.72114820    -0.57400
H2673       H  0.49879650  0.57347471  0.73483415     0.18100
O2674       O  0.56261052  0.63281789  0.78868518    -0.64200
H2675       H  0.58919333  0.60888281  0.77423428     0.16600
C2676       C  0.60056755  0.57660276  0.73278384     0.28800
C2677       C  0.61211368  0.56036093  0.72735109    -0.25100
C2678       C  0.59862523  0.53241404  0.73407355    -0.24300
C2679       C  0.57397770  0.52146713  0.74754416     0.40300
C2680       C  0.56239669  0.53749793  0.75249990    -0.26800
O2681       O  0.61354265  0.60338994  0.72512100    -0.58700
H2682       H  0.63112304  0.56938096  0.71722885     0.15900
O2683       O  0.56065182  0.49485277  0.75576361    -0.60100
H2684       H  0.54305073  0.52832024  0.76216719     0.14400
H2685       H  0.55587679  0.62257834  0.80386372     0.46200
H2686       H  0.62655285  0.61441539  0.73804146     0.41600
H2687       H  0.56928031  0.49592904  0.77135193     0.45000
H2688       H  0.53366659  0.55811936  0.70586132     0.36500
C2689       C  0.44813137  0.20935910  0.85546949    -0.27700
C2690       C  0.45506420  0.18906357  0.85797271     0.01900
C2691       C  0.45993691  0.18253962  0.88086012     0.30000
C2692       C  0.46041017  0.19799888  0.90048072    -0.19500
C2693       C  0.45571414  0.21973142  0.89760725    -0.28900
C2694       C  0.44869572  0.22487125  0.87513119     0.44000
C2695       C  0.46223929  0.17887886  0.83650289     0.05200
O2696       O  0.46649865  0.16265156  0.88394071    -0.57400
H2697       H  0.46639556  0.19431859  0.91768322     0.18100
O2698       O  0.44479174  0.24656261  0.87188269    -0.64200
H2699       H  0.44470783  0.21488380  0.83796591     0.16600
C2700       C  0.44415659  0.16759846  0.81704717     0.28800
C2701       C  0.45349294  0.16271277  0.79554346    -0.25100
C2702       C  0.48081320  0.16879876  0.79312937    -0.24300
C2703       C  0.49833532  0.17861114  0.81316802     0.40300
C2704       C  0.48903457  0.18371182  0.83447210    -0.26800
O2705       O  0.41767419  0.16222401  0.81859706    -0.58700
H2706       H  0.43951494  0.15482869  0.78054575     0.15900
O2707       O  0.52523682  0.18520742  0.81177173    -0.60100
H2708       H  0.50336989  0.19283743  0.84915265     0.14400
H2709       H  0.46315429  0.26240382  0.86741806     0.46200
H2710       H  0.40738029  0.14484095  0.82776429     0.41600
H2711       H  0.52500401  0.16852999  0.81733477     0.45000
H2712       H  0.44867696  0.14486611  0.88316073     0.36500
C2713       C  0.50025985  0.37742556  0.85438796    -0.27700
C2714       C  0.51404690  0.37301530  0.83581339     0.01900
C2715       C  0.52059207  0.35236854  0.83795600     0.30000
C2716       C  0.51411406  0.33699023  0.85883591    -0.19500
C2717       C  0.50127318  0.34203336  0.87792686    -0.28900
C2718       C  0.49378128  0.36205900  0.87535897     0.44000
C2719       C  0.52518121  0.39230060  0.81567409     0.05200
O2720       O  0.53539148  0.34869656  0.82050612    -0.57400
H2721       H  0.52040674  0.32202077  0.86048470     0.18100
O2722       O  0.48017089  0.36679586  0.89321193    -0.64200
H2723       H  0.49527446  0.39338217  0.85289139     0.16600
C2724       C  0.51734660  0.38294105  0.79217365     0.28800
C2725       C  0.53377635  0.39909889  0.77323954    -0.25100
C2726       C  0.55810518  0.42444845  0.77765751    -0.24300
C2727       C  0.56404414  0.43512616  0.80099165     0.40300
C2728       C  0.54744511  0.41907260  0.81984553    -0.26800
O2729       O  0.49506311  0.35712470  0.78770624    -0.58700
H2730       H  0.52880572  0.39072251  0.75535690     0.15900
O2731       O  0.58671143  0.46071407  0.80558128    -0.60100
H2732       H  0.55336151  0.42662248  0.83789346     0.14400
H2733       H  0.49452341  0.38381215  0.90135576     0.46200
H2734       H  0.47896040  0.35953146  0.78748998     0.41600
H2735       H  0.60051137  0.45719059  0.81273646     0.45000
H2736       H  0.52157886  0.33241942  0.81127247     0.36500
C2737       C  0.57817093  0.20202022  0.94131504    -0.27700
C2738       C  0.57718608  0.20915957  0.96502961     0.01900
C2739       C  0.59239138  0.20483104  0.98229969     0.30000
C2740       C  0.60846746  0.19357272  0.97564119    -0.19500
C2741       C  0.61022548  0.18731650  0.95168629    -0.28900
C2742       C  0.59474769  0.19157789  0.93451263     0.44000
C2743       C  0.56070782  0.22186529  0.97084294     0.05200
O2744       O  0.59150139  0.21136606  0.00566855    -0.57400
H2745       H  0.62044877  0.19080550  0.98906210     0.18100
O2746       O  0.59544580  0.18532822  0.91100355    -0.64200
H2747       H  0.56653591  0.20525734  0.92785707     0.16600
C2748       C  0.57361032  0.25044740  0.97495144     0.28800
C2749       C  0.55796779  0.26313084  0.97481754    -0.25100
C2750       C  0.52933422  0.24759462  0.97072315    -0.24300
C2751       C  0.51622775  0.21857902  0.96869528     0.40300
C2752       C  0.53196815  0.20607598  0.96842404    -0.26800
O2753       O  0.60168990  0.26639513  0.97763210    -0.58700
H2754       H  0.56849779  0.28536629  0.97664446     0.15900
O2755       O  0.48839547  0.20241696  0.96469863    -0.60100
H2756       H  0.52183604  0.18408115  0.96510574     0.14400
H2757       H  0.60807263  0.20325379  0.90322859     0.46200
H2758       H  0.60919396  0.27136818  0.96125641     0.41600
H2759       H  0.47991761  0.19725903  0.98072398     0.45000
H2760       H  0.60850966  0.22960969  0.00815682     0.36500
C2761       C  0.66804738  0.45646448  0.96877296    -0.27700
C2762       C  0.65385424  0.42767426  0.96697551     0.01900
C2763       C  0.66860243  0.41439566  0.96280446     0.30000
C2764       C  0.69716507  0.43001032  0.95950724    -0.19500
C2765       C  0.71151007  0.45899208  0.96043899    -0.28900
C2766       C  0.69672016  0.47216398  0.96587182     0.44000
C2767       C  0.62346777  0.41163336  0.96685255     0.05200
O2768       O  0.65496643  0.38626332  0.96012223    -0.57400
H2769       H  0.70792552  0.41935370  0.95534529     0.18100
O2770       O  0.70969534  0.50037585  0.96690062    -0.64200
H2771       H  0.65674718  0.46681446  0.97180200     0.16600
C2772       C  0.60843857  0.39264885  0.98501794     0.28800
C2773       C  0.58008360  0.37400126  0.98225758    -0.25100
C2774       C  0.56674069  0.37400575  0.96135206    -0.24300
C2775       C  0.58147932  0.39413352  0.94388817     0.40300
C2776       C  0.60964189  0.41304921  0.94685758    -0.26800
O2777       O  0.62161662  0.39097543  0.00472855    -0.58700
H2778       H  0.56899181  0.35826513  0.99558527     0.15900
O2779       O  0.56867668  0.39465754  0.92341762    -0.60100
H2780       H  0.62106287  0.42764164  0.93280696     0.14400
H2781       H  0.71368752  0.50510895  0.98397808     0.46200
H2782       H  0.62467240  0.40651474  0.01511204     0.41600
H2783       H  0.57254905  0.38413155  0.91150872     0.45000
H2784       H  0.65792300  0.37928729  0.97524955     0.36500
C2785       C  0.34625549  0.24200700  0.94056989    -0.27700
C2786       C  0.34249436  0.25002095  0.91806503     0.01900
C2787       C  0.36568866  0.26902944  0.90480463     0.30000
C2788       C  0.39227075  0.27965024  0.91406883    -0.19500
C2789       C  0.39621343  0.27103368  0.93635384    -0.28900
C2790       C  0.37279014  0.25221925  0.94970766     0.44000
C2791       C  0.31425428  0.23718450  0.90825513     0.05200
O2792       O  0.36252463  0.27746126  0.88286866    -0.57400
H2793       H  0.40986992  0.29403787  0.90342862     0.18100
O2794       O  0.37551360  0.24338281  0.97159354    -0.64200
H2795       H  0.32850294  0.22727023  0.95088131     0.16600
C2796       C  0.30527743  0.21682697  0.89045534     0.28800
C2797       C  0.27773319  0.20278367  0.88301955    -0.25100
C2798       C  0.25850696  0.20848890  0.89325614    -0.24300
C2799       C  0.26789882  0.22966228  0.91058816     0.40300
C2800       C  0.29554200  0.24372058  0.91796357    -0.26800
O2801       O  0.32308224  0.20985074  0.88077430    -0.58700
H2802       H  0.27127167  0.18670400  0.86970999     0.15900
O2803       O  0.25025728  0.23655092  0.92076103    -0.60100
H2804       H  0.30228187  0.25940141  0.93168859     0.14400
H2805       H  0.37634689  0.25715163  0.98305711     0.46200
H2806       H  0.32220160  0.19559955  0.89150482     0.41600
H2807       H  0.24332777  0.22528258  0.93541555     0.45000
H2808       H  0.36603215  0.26640580  0.87125374     0.36500
C2809       C  0.85741523  0.51811896  0.04958689    -0.27700
C2810       C  0.83650803  0.51168667  0.06618744     0.01900
C2811       C  0.81129896  0.50808853  0.05850627     0.30000
C2812       C  0.80698244  0.51026156  0.03431368    -0.19500
C2813       C  0.82759076  0.51592528  0.01737341    -0.28900
C2814       C  0.85321916  0.52031145  0.02538101     0.44000
C2815       C  0.84080831  0.50791195  0.09143550     0.05200
O2816       O  0.79060673  0.50203537  0.07450965    -0.57400
H2817       H  0.78723956  0.50702212  0.02880505     0.18100
O2818       O  0.87443239  0.52689227  0.00981288    -0.64200
H2819       H  0.87700612  0.52120205  0.05541370     0.16600
C2820       C  0.83930370  0.48361196  0.09907908     0.28800
C2821       C  0.84162800  0.47954669  0.12332603    -0.25100
C2822       C  0.84583987  0.49972613  0.14028374    -0.24300
C2823       C  0.84872900  0.52473468  0.13220915     0.40300
C2824       C  0.84576829  0.52840620  0.10805517    -0.26800
O2825       O  0.83526997  0.46359185  0.08297880    -0.58700
H2826       H  0.83975595  0.46038953  0.12886036     0.15900
O2827       O  0.85378532  0.54557245  0.14774968    -0.60100
H2828       H  0.84728253  0.54733250  0.10226144     0.14400
H2829       H  0.87329126  0.50917659  0.00626228     0.46200
H2830       H  0.81505906  0.45261179  0.08025526     0.41600
H2831       H  0.87418081  0.55736938  0.14860356     0.45000
H2832       H  0.77947874  0.48159804  0.07517007     0.36500
C2833       C  0.96964532  0.55752078  0.22436661    -0.27700
C2834       C  0.97528011  0.57090352  0.24646391     0.01900
C2835       C  0.95379262  0.57103321  0.25898513     0.30000
C2836       C  0.92693266  0.55717068  0.24963986    -0.19500
C2837       C  0.92098950  0.54260762  0.22801649    -0.28900
C2838       C  0.94289200  0.54344056  0.21513948     0.44000
C2839       C  0.00357314  0.58377353  0.25633521     0.05200
O2840       O  0.95897458  0.58494881  0.28018971    -0.57400
H2841       H  0.91055973  0.55694687  0.25981866     0.18100
O2842       O  0.93836150  0.52990075  0.19380428    -0.64200
H2843       H  0.98599167  0.55731083  0.21450150     0.16600
C2844       C  0.00864403  0.57417467  0.27760305     0.28800
C2845       C  0.03578683  0.58485288  0.28544280    -0.25100
C2846       C  0.05835233  0.60505426  0.27225477    -0.24300
C2847       C  0.05313004  0.61479884  0.25101085     0.40300
C2848       C  0.02598749  0.60406124  0.24322183    -0.26800
O2849       O  0.98727746  0.55360229  0.29040854    -0.58700
H2850       H  0.03917846  0.57688564  0.30168898     0.15900
O2851       O  0.07438065  0.63359303  0.23692759    -0.60100
H2852       H  0.02242467  0.61125489  0.22659019     0.14400
H2853       H  0.93911534  0.54292715  0.18170411     0.46200
H2854       H  0.98331442  0.53614802  0.28268729     0.41600
H2855       H  0.07687616  0.65173871  0.24121808     0.45000
H2856       H  0.95011673  0.57045926  0.29253012     0.36500
C2857       C  0.46364746  0.13371321  0.55569079    -0.27700
C2858       C  0.46858375  0.15408945  0.57249587     0.01900
C2859       C  0.47006692  0.17843414  0.56497281     0.30000
C2860       C  0.46785546  0.18267868  0.54079255    -0.19500
C2861       C  0.46395507  0.16276800  0.52368945    -0.28900
C2862       C  0.46117121  0.13774743  0.53152145     0.44000
C2863       C  0.47406092  0.15058507  0.59753962     0.05200
O2864       O  0.47419251  0.19844797  0.58111104    -0.57400
H2865       H  0.46969777  0.20187311  0.53542362     0.18100
O2866       O  0.45714917  0.11747420  0.51572078    -0.64200
H2867       H  0.46256363  0.11491629  0.56124652     0.16600
C2868       C  0.45428986  0.12837671  0.61134432     0.28800
C2869       C  0.46026766  0.12557566  0.63496065    -0.25100
C2870       C  0.48621401  0.14419920  0.64478519    -0.24300
C2871       C  0.50603920  0.16625406  0.63085747     0.40300
C2872       C  0.49979618  0.16943528  0.60751239    -0.26800
O2873       O  0.42879889  0.10992168  0.60214196    -0.58700
H2874       H  0.44471370  0.10867068  0.64553751     0.15900
O2875       O  0.53104761  0.18562571  0.64031196    -0.60100
H2876       H  0.51520103  0.18659821  0.59706228     0.14400
H2877       H  0.43683641  0.10515135  0.51452267     0.46200
H2878       H  0.42934383  0.09311384  0.59841149     0.41600
H2879       H  0.54408278  0.17989681  0.63513673     0.45000
H2880       H  0.45552413  0.19290850  0.58700770     0.36500
C2881       C  0.35360933  0.08899091  0.40998022    -0.27700
C2882       C  0.33332131  0.09093192  0.42264186     0.01900
C2883       C  0.34059498  0.10652745  0.44374901     0.30000
C2884       C  0.36814757  0.12134488  0.45112846    -0.19500
C2885       C  0.38893934  0.12082115  0.43778006    -0.28900
C2886       C  0.38118159  0.10345366  0.41755749     0.44000
C2887       C  0.30523678  0.07896236  0.41267699     0.05200
O2888       O  0.32108112  0.10836202  0.45674740    -0.57400
H2889       H  0.37333507  0.13403284  0.46697798     0.18100
O2890       O  0.40050706  0.10168585  0.40423341    -0.64200
H2891       H  0.34815833  0.07682687  0.39378984     0.16600
C2892       C  0.30094815  0.09052493  0.39231987     0.28800
C2893       C  0.27410536  0.08108877  0.38436150    -0.25100
C2894       C  0.25109898  0.05971203  0.39623509    -0.24300
C2895       C  0.25557753  0.04756692  0.41629565     0.40300
C2896       C  0.28245661  0.05743066  0.42446382    -0.26800
O2897       O  0.32285939  0.11212685  0.38085184    -0.58700
H2898       H  0.27132461  0.09075993  0.36895992     0.15900
O2899       O  0.23384709  0.02702083  0.42882100    -0.60100
H2900       H  0.28552049  0.04853064  0.44027613     0.14400
H2901       H  0.40116927  0.08593544  0.41101549     0.46200
H2902       H  0.32724471  0.10361255  0.36744665     0.41600
H2903       H  0.23174421  0.00957789  0.42275946     0.45000
H2904       H  0.32093444  0.12446331  0.45015843     0.36500
C2905       C  0.47924496  0.30034660  0.06705499    -0.27700
C2906       C  0.47835637  0.32390649  0.07309429     0.01900
C2907       C  0.47367655  0.33817236  0.05520333     0.30000
C2908       C  0.47047790  0.32919019  0.03162174    -0.19500
C2909       C  0.47170764  0.30579997  0.02531756    -0.28900
C2910       C  0.47589477  0.29118826  0.04342156     0.44000
C2911       C  0.48274392  0.33381485  0.09800538     0.05200
O2912       O  0.47229504  0.36104112  0.06058855    -0.57400
H2913       H  0.46730345  0.34087144  0.01819665     0.18100
O2914       O  0.47745935  0.26838696  0.03824889    -0.64200
H2915       H  0.48301163  0.28927136  0.08066972     0.16600
C2916       C  0.46546874  0.31681192  0.11635046     0.28800
C2917       C  0.46967824  0.32684373  0.13969022    -0.25100
C2918       C  0.49136718  0.35368281  0.14525893    -0.24300
C2919       C  0.50877196  0.37063012  0.12681414     0.40300
C2920       C  0.50423750  0.36069909  0.10341082    -0.26800
O2921       O  0.44383947  0.29070525  0.11148181    -0.58700
H2922       H  0.45613504  0.31331652  0.15353386     0.15900
O2923       O  0.52984883  0.39711514  0.13131010    -0.60100
H2924       H  0.51771783  0.37397954  0.08941621     0.14400
H2925       H  0.45838094  0.25245279  0.04020658     0.46200
H2926       H  0.44991517  0.27811183  0.11693908     0.41600
H2927       H  0.54664053  0.39595658  0.13267306     0.45000
H2928       H  0.45279954  0.35378976  0.06507325     0.36500
C2929       C  0.65140853  0.45655152  0.18989921    -0.27700
C2930       C  0.66402897  0.44092411  0.18867211     0.01900
C2931       C  0.64745961  0.41196395  0.18872767     0.30000
C2932       C  0.61892750  0.39903505  0.19228602    -0.19500
C2933       C  0.60635512  0.41465349  0.19547346    -0.28900
C2934       C  0.62275119  0.44365667  0.19280509     0.44000
C2935       C  0.69403419  0.45437820  0.19294286     0.05200
O2936       O  0.65930548  0.39619098  0.18767969    -0.57400
H2937       H  0.60686231  0.37676306  0.19382131     0.18100
O2938       O  0.61147171  0.45985921  0.19501117    -0.64200
H2939       H  0.66399115  0.47888408  0.19000428     0.16600
C2940       C  0.71295886  0.45828119  0.17484175     0.28800
C2941       C  0.74049432  0.46723462  0.18067366    -0.25100
C2942       C  0.74914137  0.47169098  0.20454902    -0.24300
C2943       C  0.73017681  0.46858304  0.22241479     0.40300
C2944       C  0.70313872  0.46050461  0.21647913    -0.26800
O2945       O  0.70446177  0.45220743  0.15165806    -0.58700
H2946       H  0.75463653  0.46921583  0.16671911     0.15900
O2947       O  0.73775245  0.47301092  0.24588927    -0.60100
H2948       H  0.68873772  0.45755990  0.23055255     0.14400
H2949       H  0.60596380  0.46141609  0.17866191     0.46200
H2950       H  0.70579124  0.46914759  0.14538168     0.41600
H2951       H  0.73013699  0.45437920  0.25281587     0.45000
H2952       H  0.66182376  0.39416108  0.17048859     0.36500
C2953       C  0.45642334  0.27144886  0.37499432    -0.27700
C2954       C  0.45866036  0.26211551  0.35237724     0.01900
C2955       C  0.45745794  0.23673556  0.35030025     0.30000
C2956       C  0.45553515  0.22191451  0.37078045    -0.19500
C2957       C  0.45487780  0.23207092  0.39339447    -0.28900
C2958       C  0.45484526  0.25673723  0.39545531     0.44000
C2959       C  0.46582239  0.28063113  0.33160945     0.05200
O2960       O  0.46140330  0.22794066  0.32867769    -0.57400
H2961       H  0.45689938  0.20360888  0.36908940     0.18100
O2962       O  0.45532930  0.26761027  0.41743396    -0.64200
H2963       H  0.45753671  0.29102439  0.37685955     0.16600
C2964       C  0.44970496  0.27216130  0.31086384     0.28800
C2965       C  0.45818233  0.28957506  0.29103056    -0.25100
C2966       C  0.48290564  0.31549182  0.29134299    -0.24300
C2967       C  0.49850354  0.32426755  0.31254626     0.40300
C2968       C  0.48992096  0.30686382  0.33234901    -0.26800
O2969       O  0.42537248  0.24714912  0.31003554    -0.58700
H2970       H  0.44560348  0.28235473  0.27514247     0.15900
O2971       O  0.52275947  0.34927160  0.31390197    -0.60100
H2972       H  0.50260271  0.31360748  0.34820153     0.14400
H2973       H  0.47514118  0.28035460  0.42107718     0.46200
H2974       H  0.42829110  0.23596948  0.29808191     0.41600
H2975       H  0.51777584  0.36199501  0.32136249     0.45000
H2976       H  0.44378056  0.21062611  0.32509125     0.36500
C2977       C  0.38423735  0.42909138  0.24260503    -0.27700
C2978       C  0.40295120  0.42687763  0.25724898     0.01900
C2979       C  0.41028479  0.44078314  0.27927063     0.30000
C2980       C  0.39964740  0.45730591  0.28598772    -0.19500
C2981       C  0.38135319  0.46008143  0.27112220    -0.28900
C2982       C  0.37342495  0.44543894  0.24935341     0.44000
C2983       C  0.41719397  0.41286592  0.24813510     0.05200
O2984       O  0.42937387  0.43994959  0.29354561    -0.57400
H2985       H  0.40622450  0.46843611  0.30271298     0.18100
O2986       O  0.35599249  0.44776473  0.23405397    -0.64200
H2987       H  0.37861637  0.41871305  0.22550292     0.16600
C2988       C  0.41590880  0.39044971  0.26004106     0.28800
C2989       C  0.43158989  0.37935970  0.25184335    -0.25100
C2990       C  0.44883622  0.39039684  0.23177596    -0.24300
C2991       C  0.44927074  0.41233071  0.21949583     0.40300
C2992       C  0.43340272  0.42310747  0.22759270    -0.26800
O2993       O  0.39971779  0.37949641  0.27988043    -0.58700
H2994       H  0.43075116  0.36253204  0.26159434     0.15900
O2995       O  0.46518751  0.42357032  0.19954109    -0.60100
H2996       H  0.43448954  0.44025555  0.21816741     0.14400
H2997       H  0.36814749  0.46385459  0.22388109     0.46200
H2998       H  0.38114221  0.36571668  0.27375663     0.41600
H2999       H  0.48216720  0.44044544  0.20516394     0.45000
H3000       H  0.41859890  0.42746164  0.30680361     0.36500
C3001       C  0.71620592  0.63118774  0.40653124    -0.27700
C3002       C  0.73922772  0.65275764  0.41807064     0.01900
C3003       C  0.74993054  0.64699308  0.43820773     0.30000
C3004       C  0.73780755  0.61984364  0.44642725    -0.19500
C3005       C  0.71481995  0.59797795  0.43482932    -0.28900
C3006       C  0.70392721  0.60400078  0.41475437     0.44000
C3007       C  0.75265797  0.68115004  0.40859537     0.05200
O3008       O  0.77252212  0.66775597  0.44976612    -0.57400
H3009       H  0.74665015  0.61589510  0.46180552     0.18100
O3010       O  0.68157500  0.58349730  0.40275171    -0.64200
H3011       H  0.70786593  0.63543683  0.39095973     0.16600
C3012       C  0.76861853  0.68834687  0.38773542     0.28800
C3013       C  0.78294930  0.71576245  0.37996923    -0.25100
C3014       C  0.78170576  0.73650892  0.39277786    -0.24300
C3015       C  0.76490847  0.72894865  0.41334368     0.40300
C3016       C  0.75064230  0.70147735  0.42108816    -0.26800
O3017       O  0.77088548  0.66882795  0.37514523    -0.58700
H3018       H  0.79560447  0.72085602  0.36413285     0.15900
O3019       O  0.76272048  0.74824571  0.42636534    -0.60100
H3020       H  0.73832549  0.69608506  0.43716155     0.14400
H3021       H  0.68942365  0.57741235  0.39001779     0.46200
H3022       H  0.78689785  0.66886374  0.38219309     0.41600
H3023       H  0.77723285  0.75468733  0.43872457     0.45000
H3024       H  0.78868523  0.66894092  0.44170114     0.36500
C3025       C  0.67609316  0.51781410  0.61390637    -0.27700
C3026       C  0.65461700  0.50796346  0.59736622     0.01900
C3027       C  0.62714336  0.49433945  0.60559690     0.30000
C3028       C  0.62157853  0.49044771  0.63010537    -0.19500
C3029       C  0.64313082  0.50002168  0.64673797    -0.28900
C3030       C  0.67068325  0.51409816  0.63826444     0.44000
C3031       C  0.66158006  0.51122695  0.57164808     0.05200
O3032       O  0.60562172  0.48326181  0.58978475    -0.57400
H3033       H  0.60029527  0.47936587  0.63601525     0.18100
O3034       O  0.69264807  0.52367853  0.65349138    -0.64200
H3035       H  0.69733357  0.52836094  0.60785603     0.16600
C3036       C  0.65309030  0.52490861  0.55629889     0.28800
C3037       C  0.66106757  0.52860550  0.53232952    -0.25100
C3038       C  0.67792772  0.51918881  0.52326880    -0.24300
C3039       C  0.68632855  0.50542384  0.53873935     0.40300
C3040       C  0.67829120  0.50171820  0.56264331    -0.26800
O3041       O  0.63744121  0.53520747  0.56461280    -0.58700
H3042       H  0.65419174  0.53911454  0.52085162     0.15900
O3043       O  0.70209695  0.49513559  0.53070734    -0.60100
H3044       H  0.68500449  0.49114311  0.57422933     0.14400
H3045       H  0.69834664  0.54310605  0.65690604     0.46200
H3046       H  0.65090666  0.55415225  0.57020162     0.41600
H3047       H  0.68870576  0.47626978  0.52486281     0.45000
H3048       H  0.59678145  0.49433369  0.59166998     0.36500
C3049       C  0.78930638  0.52975135  0.30915172    -0.27700
C3050       C  0.80313079  0.53105051  0.33020206     0.01900
C3051       C  0.82450701  0.52524593  0.32910445     0.30000
C3052       C  0.83000643  0.51597434  0.30778973    -0.19500
C3053       C  0.81533096  0.51363687  0.28704311    -0.28900
C3054       C  0.79564917  0.52168929  0.28765900     0.44000
C3055       C  0.79186635  0.53354771  0.35346078     0.05200
O3056       O  0.83944515  0.52759775  0.34901623    -0.57400
H3057       H  0.84562931  0.51043858  0.30749778     0.18100
O3058       O  0.78085350  0.51958423  0.26773032    -0.64200
H3059       H  0.77242776  0.53347349  0.30953663     0.16600
C3060       C  0.78460137  0.55356353  0.35782795     0.28800
C3061       C  0.76936888  0.55176638  0.37835209    -0.25100
C3062       C  0.76086704  0.52986187  0.39432946    -0.24300
C3063       C  0.76985080  0.51114217  0.39070244     0.40300
C3064       C  0.78498346  0.51299730  0.37048214    -0.26800
O3065       O  0.79198039  0.57462893  0.34201461    -0.58700
H3066       H  0.76268157  0.56635177  0.38090277     0.15900
O3067       O  0.76236214  0.48970532  0.40612660    -0.60100
H3068       H  0.78987639  0.49713662  0.36742769     0.14400
H3069       H  0.78992721  0.53852774  0.26120757     0.46200
H3070       H  0.77453111  0.57069372  0.33445421     0.41600
H3071       H  0.77651756  0.49740200  0.41882652     0.45000
H3072       H  0.85523787  0.54692660  0.34895320     0.36500
C3073       C  0.60012856  0.48090690  0.28995844    -0.27700
C3074       C  0.58925731  0.47242247  0.31291897     0.01900
C3075       C  0.56214752  0.44972563  0.31564514     0.30000
C3076       C  0.54744121  0.43425904  0.29570567    -0.19500
C3077       C  0.55951296  0.44124659  0.27308069    -0.28900
C3078       C  0.58550290  0.46528355  0.27009179     0.44000
C3079       C  0.60787611  0.48365892  0.33368348     0.05200
O3080       O  0.55080132  0.44112539  0.33783248    -0.57400
H3081       H  0.52754478  0.41553150  0.29815147     0.18100
O3082       O  0.59748939  0.47258039  0.24800778    -0.64200
H3083       H  0.62086685  0.49843838  0.28761342     0.16600
C3084       C  0.63108466  0.48084955  0.33485265     0.28800
C3085       C  0.64641644  0.48751806  0.35573694    -0.25100
C3086       C  0.63878271  0.49660139  0.37599699    -0.24300
C3087       C  0.61662936  0.50117447  0.37434027     0.40300
C3088       C  0.60119837  0.49445044  0.35332452    -0.26800
O3089       O  0.63803351  0.47003400  0.31610543    -0.58700
H3090       H  0.66344307  0.48402235  0.35638597     0.15900
O3091       O  0.60928176  0.51130301  0.39331553    -0.60100
H3092       H  0.58353771  0.49693999  0.35256246     0.14400
H3093       H  0.60896849  0.46411526  0.24667800     0.46200
H3094       H  0.62731306  0.44977879  0.31854865     0.41600
H3095       H  0.62007711  0.53164124  0.39137245     0.45000
H3096       H  0.55495052  0.42678731  0.34238868     0.36500
C3097       C  0.59113595  0.38764161  0.48775017    -0.27700
C3098       C  0.57358156  0.36962805  0.46998470     0.01900
C3099       C  0.57205823  0.38045005  0.44801153     0.30000
C3100       C  0.58904794  0.40865282  0.44350786    -0.19500
C3101       C  0.60770492  0.42656713  0.46072684    -0.28900
C3102       C  0.60811115  0.41606532  0.48326456     0.44000
C3103       C  0.55875734  0.33932973  0.47319720     0.05200
O3104       O  0.55499884  0.36335399  0.43037538    -0.57400
H3105       H  0.58865899  0.41636780  0.42601691     0.18100
O3106       O  0.62631465  0.43300630  0.50037082    -0.64200
H3107       H  0.59249402  0.37948934  0.50471579     0.16600
C3108       C  0.57256118  0.32495016  0.46971739     0.28800
C3109       C  0.55749834  0.29606508  0.46786255    -0.25100
C3110       C  0.52851379  0.28099213  0.46967744    -0.24300
C3111       C  0.51503573  0.29554916  0.47505465     0.40300
C3112       C  0.53012615  0.32443429  0.47641583    -0.26800
O3113       O  0.60056765  0.33909186  0.46622348    -0.58700
H3114       H  0.56848260  0.28560619  0.46384043     0.15900
O3115       O  0.48691100  0.28202689  0.47748731    -0.60100
H3116       H  0.51929475  0.33532375  0.47904698     0.14400
H3117       H  0.64307625  0.43196689  0.49800163     0.46200
H3118       H  0.60859156  0.34148560  0.48233337     0.41600
H3119       H  0.48331505  0.27683970  0.49449095     0.45000
H3120       H  0.56626233  0.35769873  0.42122611     0.36500
C3121       C  0.80602281  0.30191599  0.55943954    -0.27700
C3122       C  0.82888005  0.32668487  0.56755073     0.01900
C3123       C  0.84870084  0.34488258  0.55112974     0.30000
C3124       C  0.84513719  0.33854623  0.52684762    -0.19500
C3125       C  0.82198281  0.31406319  0.51860435    -0.28900
C3126       C  0.80238098  0.29559764  0.53513219     0.44000
C3127       C  0.83184934  0.33346801  0.59318359     0.05200
O3128       O  0.87201461  0.36846637  0.55878957    -0.57400
H3129       H  0.86052221  0.35285663  0.51441231     0.18100
O3130       O  0.77913823  0.27183003  0.52768384    -0.64200
H3131       H  0.79062806  0.28777921  0.57195780     0.16600
C3132       C  0.83220108  0.35704813  0.60162294     0.28800
C3133       C  0.83605216  0.36366326  0.62585495    -0.25100
C3134       C  0.83935887  0.34686396  0.64211840    -0.24300
C3135       C  0.83818514  0.32274760  0.63358450     0.40300
C3136       C  0.83435201  0.31622713  0.60933047    -0.26800
O3137       O  0.82863191  0.37368391  0.58633274    -0.58700
H3138       H  0.83640480  0.38200989  0.63189826     0.15900
O3139       O  0.84006862  0.30498363  0.64878366    -0.60100
H3140       H  0.83366919  0.29778383  0.60304800     0.14400
H3141       H  0.76529712  0.27715348  0.52471201     0.46200
H3142       H  0.80840840  0.36430346  0.58390246     0.41600
H3143       H  0.85966209  0.31017724  0.64807886     0.45000
H3144       H  0.86947902  0.38384009  0.55418366     0.36500
C3145       C  0.86868750  0.42806328  0.31075892    -0.27700
C3146       C  0.85815331  0.39965350  0.30793021     0.01900
C3147       C  0.85061498  0.38786572  0.28505134     0.30000
C3148       C  0.85123454  0.40380770  0.26591238    -0.19500
C3149       C  0.85945866  0.43157370  0.26917640    -0.28900
C3150       C  0.86929712  0.44402362  0.29153013     0.44000
C3151       C  0.84984690  0.38179493  0.32926234     0.05200
O3152       O  0.84025171  0.36021394  0.28167012    -0.57400
H3153       H  0.84313994  0.39388989  0.24890053     0.18100
O3154       O  0.87645374  0.47083266  0.29540735    -0.64200
H3155       H  0.87413194  0.43733931  0.32830583     0.16600
C3156       C  0.86889816  0.38484880  0.34677323     0.28800
C3157       C  0.85952140  0.36967118  0.36800121    -0.25100
C3158       C  0.83112346  0.35199538  0.37229195    -0.24300
C3159       C  0.81224611  0.34829524  0.35425503     0.40300
C3160       C  0.82166894  0.36303395  0.33304579    -0.26800
O3161       O  0.89663041  0.40257693  0.34326428    -0.58700
H3162       H  0.87438449  0.37266795  0.38151584     0.15900
O3163       O  0.78437118  0.33097668  0.35744828    -0.60100
H3164       H  0.80671991  0.36060201  0.31981961     0.14400
H3165       H  0.89627778  0.48210507  0.29112746     0.46200
H3166       H  0.90131461  0.41944057  0.35243623     0.41600
H3167       H  0.78004243  0.31301694  0.35057221     0.45000
H3168       H  0.85664967  0.35858285  0.27909766     0.36500
C3169       C  0.66356975  0.24951802  0.48004392    -0.27700
C3170       C  0.64674823  0.22172865  0.47311102     0.01900
C3171       C  0.65936515  0.20705524  0.46575064     0.30000
C3172       C  0.68806235  0.22060999  0.46358359    -0.19500
C3173       C  0.70467005  0.24877317  0.46883318    -0.28900
C3174       C  0.69239671  0.26312205  0.47773929     0.44000
C3175       C  0.61662267  0.20963451  0.46958268     0.05200
O3176       O  0.64368270  0.17992027  0.45892034    -0.57400
H3177       H  0.69725245  0.20952025  0.45622255     0.18100
O3178       O  0.70826733  0.29074722  0.48294462    -0.64200
H3179       H  0.65432154  0.26127038  0.48547462     0.16600
C3180       C  0.59912745  0.20933350  0.48765430     0.28800
C3181       C  0.57121445  0.19956549  0.48266473    -0.25100
C3182       C  0.56078835  0.19086111  0.45958895    -0.24300
C3183       C  0.57813412  0.19056015  0.44180069     0.40300
C3184       C  0.60563538  0.19970608  0.44687792    -0.26800
O3185       O  0.60911678  0.21853251  0.51012254    -0.58700
H3186       H  0.55816937  0.20025380  0.49644398     0.15900
O3187       O  0.56835336  0.18155318  0.41922884    -0.60100
H3188       H  0.61876464  0.20006765  0.43264982     0.14400
H3189       H  0.70814802  0.30034755  0.46830416     0.46200
H3190       H  0.61126786  0.23699201  0.51144232     0.41600
H3191       H  0.57493437  0.19853847  0.40972018     0.45000
H3192       H  0.63970638  0.16923100  0.47381501     0.36500
C3193       C  0.75793782  0.38606006  0.48208638    -0.27700
C3194       C  0.76360092  0.40722905  0.46605325     0.01900
C3195       C  0.78108050  0.41188099  0.44646259     0.30000
C3196       C  0.79195688  0.39496210  0.44270755    -0.19500
C3197       C  0.78510283  0.37292540  0.45801529    -0.28900
C3198       C  0.76861265  0.36896365  0.47817373     0.44000
C3199       C  0.75014950  0.42353022  0.46885226     0.05200
O3200       O  0.78630931  0.43188926  0.43011397    -0.57400
H3201       H  0.80408040  0.39779921  0.42685400     0.18100
O3202       O  0.76187747  0.34768811  0.49356328    -0.64200
H3203       H  0.74464024  0.38235718  0.49727130     0.16600
C3204       C  0.72142483  0.41109110  0.46623073     0.28800
C3205       C  0.70964164  0.42750191  0.46517067    -0.25100
C3206       C  0.72619473  0.45647568  0.46653563    -0.24300
C3207       C  0.75477797  0.46862664  0.47085423     0.40300
C3208       C  0.76646511  0.45217942  0.47177228    -0.26800
O3209       O  0.70490127  0.38305564  0.46336241    -0.58700
H3210       H  0.68766217  0.41753798  0.46203448     0.15900
O3211       O  0.77191890  0.49669671  0.47259409    -0.60100
H3212       H  0.78858729  0.46195161  0.47390690     0.14400
H3213       H  0.77799571  0.35458705  0.50427906     0.46200
H3214       H  0.70401295  0.37986809  0.44594816     0.41600
H3215       H  0.77301251  0.50084208  0.48985042     0.45000
H3216       H  0.77123568  0.42271007  0.41827610     0.36500
C3217       C  0.93283997  0.24601702  0.42315202    -0.27700
C3218       C  0.91165711  0.24456073  0.40929491     0.01900
C3219       C  0.90397904  0.22907798  0.38809512     0.30000
C3220       C  0.91644338  0.21416898  0.38159102    -0.19500
C3221       C  0.93670514  0.21433652  0.39603666    -0.28900
C3222       C  0.94550054  0.23124412  0.41661639     0.44000
C3223       C  0.89496692  0.25581838  0.41858579     0.05200
O3224       O  0.88381696  0.22793851  0.37389655    -0.57400
H3225       H  0.90961707  0.20179315  0.36550995     0.18100
O3226       O  0.96498470  0.23194532  0.43142544    -0.64200
H3227       H  0.93871465  0.25764816  0.43964890     0.16600
C3228       C  0.86935323  0.23794765  0.42933072     0.28800
C3229       C  0.85239827  0.24777957  0.43655203    -0.25100
C3230       C  0.86060102  0.27564120  0.43353070    -0.24300
C3231       C  0.88685908  0.29385474  0.42358975     0.40300
C3232       C  0.90378985  0.28383410  0.41609495    -0.26800
O3233       O  0.86037406  0.21054446  0.43224807    -0.58700
H3234       H  0.83252510  0.23335216  0.44435661     0.15900
O3235       O  0.89549419  0.32103491  0.41983113    -0.60100
H3236       H  0.92351305  0.29778807  0.40782658     0.14400
H3237       H  0.98273263  0.24822932  0.42628404     0.46200
H3238       H  0.86689166  0.20930541  0.44826321     0.41600
H3239       H  0.90764377  0.33114710  0.43348970     0.45000
H3240       H  0.86671287  0.21040705  0.37809963     0.36500
C3241       C  0.65583165  0.14653665  0.10600229    -0.27700
C3242       C  0.64527719  0.15749076  0.09001257     0.01900
C3243       C  0.62582761  0.16406198  0.09795657     0.30000
C3244       C  0.61733125  0.15980505  0.12184518    -0.19500
C3245       C  0.62822417  0.14917230  0.13811192    -0.28900
C3246       C  0.64756177  0.14235593  0.12978611     0.44000
C3247       C  0.65409740  0.16075804  0.06488831     0.05200
O3248       O  0.61445986  0.17387390  0.08235752    -0.57400
H3249       H  0.60245855  0.16514607  0.12766898     0.18100
O3250       O  0.65893387  0.13192446  0.14472887    -0.64200
H3251       H  0.67069130  0.14124744  0.09997844     0.16600
C3252       C  0.67197784  0.18692277  0.05503260     0.28800
C3253       C  0.68104697  0.18916071  0.03143360    -0.25100
C3254       C  0.67241583  0.16545305  0.01734378    -0.24300
C3255       C  0.65444288  0.13923799  0.02748967     0.40300
C3256       C  0.64575344  0.13713071  0.05108316    -0.26800
O3257       O  0.68075884  0.21037845  0.06833881    -0.58700
H3258       H  0.69458224  0.20950016  0.02408144     0.15900
O3259       O  0.64550851  0.11540723  0.01469318    -0.60100
H3260       H  0.63227559  0.11687835  0.05864748     0.14400
H3261       H  0.64604144  0.11163923  0.14437914     0.46200
H3262       H  0.69689314  0.21292217  0.07736233     0.41600
H3263       H  0.62703466  0.11027807  0.00862633     0.45000
H3264       H  0.62565690  0.19423916  0.08404113     0.36500
C3265       C  0.53883675  0.21417644  0.18412058    -0.27700
C3266       C  0.55246028  0.24163911  0.19182185     0.01900
C3267       C  0.57970458  0.25429919  0.20014634     0.30000
C3268       C  0.59250822  0.23899302  0.20200720    -0.19500
C3269       C  0.57839786  0.21088571  0.19568845    -0.28900
C3270       C  0.55161812  0.19877184  0.18587892     0.44000
C3271       C  0.53731797  0.25615054  0.19402398     0.05200
O3272       O  0.59316280  0.28102761  0.20826964    -0.57400
H3273       H  0.61298716  0.24884299  0.20964639     0.18100
O3274       O  0.53744353  0.17174402  0.17852010    -0.64200
H3275       H  0.51786052  0.20436756  0.17759171     0.16600
C3276       C  0.54240460  0.27754044  0.17837916     0.28800
C3277       C  0.53204111  0.29462357  0.18365602    -0.25100
C3278       C  0.51699920  0.29073965  0.20463421    -0.24300
C3279       C  0.51066254  0.26840251  0.21956997     0.40300
C3280       C  0.52049960  0.25098869  0.21401584    -0.26800
O3281       O  0.55907410  0.28309258  0.15888653    -0.58700
H3282       H  0.53741959  0.31208671  0.17229173     0.15900
O3283       O  0.49574573  0.26411945  0.24006018    -0.60100
H3284       H  0.51654401  0.23455505  0.22616149     0.14400
H3285       H  0.52473406  0.16131021  0.19180678     0.46200
H3286       H  0.54698359  0.26976068  0.14653356     0.41600
H3287       H  0.50965338  0.27293940  0.25288473     0.45000
H3288       H  0.60369914  0.29240801  0.19440127     0.36500
C3289       C  0.74577670  0.22116309  0.34422483    -0.27700
C3290       C  0.71855165  0.19941937  0.34788182     0.01900
C3291       C  0.70852610  0.19174953  0.37126092     0.30000
C3292       C  0.72468039  0.20769041  0.39045654    -0.19500
C3293       C  0.75053635  0.23144685  0.38646194    -0.28900
C3294       C  0.76175269  0.23727112  0.36337814     0.44000
C3295       C  0.69985962  0.18789822  0.32722524     0.05200
O3296       O  0.68265755  0.16926131  0.37530896    -0.57400
H3297       H  0.71600074  0.20278875  0.40822728     0.18100
O3298       O  0.78799654  0.25912325  0.35939918    -0.64200
H3299       H  0.75395200  0.22695535  0.32635334     0.16600
C3300       C  0.67633333  0.19015966  0.32600925     0.28800
C3301       C  0.66045907  0.18229642  0.30540085    -0.25100
C3302       C  0.66820696  0.17320648  0.28521205    -0.24300
C3303       C  0.69161803  0.17059755  0.28649759     0.40300
C3304       C  0.70713080  0.17777887  0.30747950    -0.26800
O3305       O  0.66961023  0.20169250  0.34432612    -0.58700
H3306       H  0.64287181  0.18492038  0.30486206     0.15900
O3307       O  0.69972803  0.16138508  0.26736351    -0.60100
H3308       H  0.72538228  0.17626352  0.30809911     0.14400
H3309       H  0.78566392  0.27357411  0.35193843     0.46200
H3310       H  0.67999639  0.22180988  0.34111300     0.41600
H3311       H  0.71468836  0.17829664  0.25962300     0.45000
H3312       H  0.67189644  0.17655647  0.38291776     0.36500
C3313       C  0.50695631  0.13568387  0.28546517    -0.27700
C3314       C  0.51523899  0.13381212  0.30855848     0.01900
C3315       C  0.53801943  0.13042739  0.31134659     0.30000
C3316       C  0.55278556  0.13022135  0.29143927    -0.19500
C3317       C  0.54543522  0.13365534  0.26856663    -0.28900
C3318       C  0.52206283  0.13586682  0.26555582     0.44000
C3319       C  0.50277926  0.13900378  0.32978146     0.05200
O3320       O  0.54740325  0.12952724  0.33356294    -0.57400
H3321       H  0.57133274  0.12952403  0.29402381     0.18100
O3322       O  0.51537892  0.14074806  0.24347169    -0.64200
H3323       H  0.48962730  0.13844581  0.28294955     0.16600
C3324       C  0.50309889  0.16390680  0.33209405     0.28800
C3325       C  0.49739143  0.17150120  0.35411627    -0.25100
C3326       C  0.49137235  0.15467766  0.37426334    -0.24300
C3327       C  0.48864319  0.12861262  0.37135809     0.40300
C3328       C  0.49431119  0.12100774  0.34927250    -0.26800
O3329       O  0.51160139  0.18223717  0.31360391    -0.58700
H3330       H  0.49921018  0.19143159  0.35562047     0.15900
O3331       O  0.48198039  0.11100272  0.39019581    -0.60100
H3332       H  0.49348017  0.10154613  0.34767648     0.14400
H3333       H  0.50195433  0.12225671  0.23694537     0.46200
H3334       H  0.49447920  0.18037969  0.30712794     0.41600
H3335       H  0.46154620  0.09949978  0.39014159     0.45000
H3336       H  0.55935800  0.14908760  0.33850767     0.36500
C3337       C  0.73611375  0.28525555  0.21410008    -0.27700
C3338       C  0.73490702  0.29639676  0.19231616     0.01900
C3339       C  0.71632095  0.27906212  0.17471771     0.30000
C3340       C  0.69823141  0.25097296  0.17954794    -0.19500
C3341       C  0.69810865  0.24037876  0.20206603    -0.28900
C3342       C  0.71764843  0.25752765  0.21916771     0.44000
C3343       C  0.75128879  0.32659616  0.18970800     0.05200
O3344       O  0.71538192  0.28952674  0.15306205    -0.57400
H3345       H  0.68310184  0.23795555  0.16633744     0.18100
O3346       O  0.71838946  0.24740699  0.24108479    -0.64200
H3347       H  0.75041975  0.29847979  0.22773219     0.16600
C3348       C  0.73849298  0.34209614  0.19181395     0.28800
C3349       C  0.75453317  0.37069219  0.19503387    -0.25100
C3350       C  0.78342865  0.38421334  0.19653652    -0.24300
C3351       C  0.79622223  0.36866528  0.19310457     0.40300
C3352       C  0.78008263  0.34008780  0.18972064    -0.26800
O3353       O  0.71027399  0.32926309  0.19229000    -0.58700
H3354       H  0.74419958  0.38208739  0.19752437     0.15900
O3355       O  0.82436539  0.38088761  0.19413056    -0.60100
H3356       H  0.79004427  0.32820285  0.18842264     0.14400
H3357       H  0.70890919  0.25361043  0.25202946     0.46200
H3358       H  0.70507053  0.32505436  0.20927506     0.41600
H3359       H  0.82814733  0.37504003  0.20953877     0.45000
H3360       H  0.69945097  0.29218555  0.15404729     0.36500
C3361       C  0.55795525  0.96543040  0.23214299    -0.27700
C3362       C  0.55935370  0.98667196  0.24604537     0.01900
C3363       C  0.54827197  0.98100996  0.26912698     0.30000
C3364       C  0.53502801  0.95405696  0.27780648    -0.19500
C3365       C  0.53289536  0.93242353  0.26379431    -0.28900
C3366       C  0.54491698  0.93841593  0.24086798     0.44000
C3367       C  0.57142524  0.01461847  0.23621178     0.05200
O3368       O  0.54920391  0.00151406  0.28290380    -0.57400
H3369       H  0.52590355  0.94999593  0.29539956     0.18100
O3370       O  0.54318138  0.91794926  0.22649333    -0.64200
H3371       H  0.56651104  0.96972798  0.21432764     0.16600
C3372       C  0.59826475  0.03553007  0.24237001     0.28800
C3373       C  0.60824039  0.06267466  0.23517638    -0.25100
C3374       C  0.59169025  0.06940200  0.22173157    -0.24300
C3375       C  0.56504497  0.04798462  0.21481417     0.40300
C3376       C  0.55518805  0.02085127  0.22204611    -0.26800
O3377       O  0.61452479  0.02977292  0.25613322    -0.58700
H3378       H  0.62880561  0.07856790  0.24059434     0.15900
O3379       O  0.54818450  0.05328828  0.20142886    -0.60100
H3380       H  0.53444853  0.00474923  0.21723414     0.14400
H3381       H  0.52586156  0.91094608  0.21735666     0.46200
H3382       H  0.62285624  0.02259312  0.24490164     0.41600
H3383       H  0.53711731  0.05669263  0.21311812     0.45000
H3384       H  0.56637359  0.00902425  0.29235095     0.36500
loop_ 
_geom_bond_atom_site_label_1 
_geom_bond_atom_site_label_2 
_geom_bond_distance 
_geom_bond_site_symmetry_2 
_ccdc_geom_bond_type 
O1          Cr19   1.990       .  S
O1            C9   1.261       .  A
O2          Cr19   1.968       .  S
O2            C3   1.259       .  A
C3            O4   1.266       .  A
C3         C3302   1.481       .  S
O4          Cr20   2.010       .  S
O5          Cr20   1.972       .  S
O5            C6   1.262       .  A
C6            O7   1.268       .  A
C6         C3374   1.484       .  S
O7          Cr21   2.010       .  S
O8          Cr21   1.997       .  S
O8            C9   1.264       .  A
C9         C3317   1.468       .  S
O10         Cr19   1.973       .  S
O10          C18   1.261       .  A
O11         Cr19   1.994       .  S
O11          C12   1.262       .  A
C12          O13   1.260       .  A
C12        C3341   1.465       .  S
O13         Cr20   1.986       .  S
O14         Cr20   1.992       .  S
O14          C15   1.262       .  A
C15          O16   1.263       .  A
C15        C3245   1.488       .  S
O16         Cr21   1.994       .  S
O17         Cr21   2.002       .  S
O17          C18   1.265       .  A
C18        C3269   1.483       .  S
Cr19         O22   1.760       .  S
Cr20         O22   1.768       .  S
Cr21         O22   1.767       .  S
O23         Cr41   2.020       .  S
O23          C31   1.271       .  A
O24         Cr41   1.967       .  S
O24          C25   1.260       .  A
C25          O26   1.269       .  A
C25        C3230   1.491       .  S
O26         Cr42   2.021       .  S
O27         Cr42   1.994       .  S
O27          C28   1.258       .  A
C28          O29   1.259       .  A
C28        C3158   1.484       .  S
O29         Cr43   1.994       .  S
O30         Cr43   1.961       .  S
O30          C31   1.261       .  A
C31        C3293   1.466       .  S
O32         Cr41   1.994       .  S
O32          C40   1.257       .  A
O33         Cr41   1.998       .  S
O33          C34   1.265       .  A
C34          O35   1.259       .  A
C34        C3125   1.475       .  S
O35         Cr42   1.967       .  S
O36         Cr42   2.038       .  S
O36          C37   1.275       .  A
C37          O38   1.259       .  A
C37        C3197   1.469       .  S
O38         Cr43   1.958       .  S
O39         Cr43   1.994       .  S
O39          C40   1.257       .  A
C40        C3173   1.469       .  S
Cr41         O44   1.774       .  S
Cr42         O44   1.777       .  S
Cr43         O44   1.763       .  S
O45         Cr63   2.006       .  S
O45          C53   1.264       .  A
O46         Cr63   2.015       .  S
O46          C47   1.269       .  A
C47          O48   1.262       .  A
C47        C3005   1.489       .  S
O48         Cr64   1.978       .  S
O49         Cr64   2.013       .  S
O49          C50   1.267       .  A
C50          O51   1.260       .  A
C50        C3086   1.481       .  S
O51         Cr65   1.969       .  S
O52         Cr65   1.984       .  S
O52          C53   1.260       .  A
C53        C3062   1.479       .  S
O54         Cr63   2.015       .  S
O54          C62   1.269       .  A
O55         Cr63   1.985       .  S
O55          C56   1.262       .  A
C56          O57   1.263       .  A
C56        C3038   1.487       .  S
O57         Cr64   2.001       .  S
O58         Cr64   2.001       .  S
O58          C59   1.263       .  A
C59          O60   1.261       .  A
C59        C3101   1.476       .  S
O60         Cr65   1.994       .  S
O61         Cr65   1.978       .  S
O61          C62   1.263       .  A
C62        C3206   1.489       .  S
Cr63         O66   1.768       .  S
Cr64         O66   1.771       .  S
Cr65         O66   1.759       .  S
O67         Cr85   2.001       .  S
O67          C75   1.266       .  A
O68         Cr85   1.977       .  S
O68          C69   1.260       .  A
C69          O70   1.266       .  A
C69        C2966   1.488       .  S
O70         Cr86   2.007       .  S
O71         Cr86   1.994       .  S
O71          C72   1.264       .  A
C72          O73   1.266       .  A
C72        C2990   1.492       .  S
O73         Cr87   2.006       .  S
O74         Cr87   1.981       .  S
O74          C75   1.261       .  A
C75        C3077   1.462       .  S
O76         Cr85   1.985       .  S
O76          C84   1.260       .  A
O77         Cr85   1.999       .  S
O77          C78   1.264       .  A
C78          O79   1.261       .  A
C78        C3278   1.465       .  S
O79         Cr86   1.985       .  S
O80         Cr86   2.003       .  S
O80          C81   1.266       .  A
C81          O82   1.262       .  A
C81        C2918   1.481       .  S
O82         Cr87   1.977       .  S
O83         Cr87   2.011       .  S
O83          C84   1.265       .  A
C84        C2933   1.491       .  S
Cr85         O88   1.763       .  S
Cr86         O88   1.770       .  S
Cr87         O88   1.771       .  S
O89        Cr107   1.996       .  S
O89          C97   1.263       .  A
O90        Cr107   2.006       .  S
O90          C91   1.266       .  A
C91          O92   1.262       .  A
C91        C2885   1.489       .  S
O92        Cr108   1.988       .  S
O93        Cr108   2.018       .  S
O93          C94   1.268       .  A
C94          O95   1.259       .  A
C94        C3326   1.490       .  S
O95        Cr109   1.973       .  S
O96        Cr109   1.984       .  S
O96          C97   1.260       .  A
C97        C2957   1.463       .  S
O98        Cr107   2.013       .  S
O98         C106   1.268       .  A
O99        Cr107   1.984       .  S
O99         C100   1.265       .  A
C100        O101   1.266       .  A
C100       C2861   1.489       .  S
O101       Cr108   2.005       .  S
O102       Cr108   1.998       .  S
O102        C103   1.262       .  A
C103        O104   1.262       .  A
C103       C3182   1.475       .  S
O104       Cr109   1.991       .  S
O105       Cr109   1.985       .  S
O105        C106   1.263       .  A
C106       C3110   1.494       .  S
Cr107       O110   1.769       .  S
Cr108       O110   1.771       .  S
Cr109       O110   1.765       .  S
O111       Cr129   1.993       .  S
O111        C119   1.262       .  A
O112       Cr129   1.991       .  S
O112        C113   1.261       .  A
C113        O114   1.263       .  A
C113       C3053   1.479       .  S
O114       Cr130   2.007       .  S
O115       Cr130   1.994       .  S
O115        C116   1.266       .  A
C116        O117   1.264       .  A
C116       C2837   1.486       .  S
O117       Cr131   1.997       .  S
O118       Cr131   1.996       .  S
O118        C119   1.263       .  A
C119       C3149   1.470       .  S
O120       Cr129   1.980       .  S
O120        C128   1.262       .  A
O121       Cr129   2.001       .  S
O121        C122   1.266       .  A
C122        O123   1.266       .  A
C122       C2942   1.484       .  S
O123       Cr130   2.001       .  S
O124       Cr130   2.001       .  S
O124        C125   1.264       .  A
C125        O126   1.264       .  A
C125       C2822   1.491       .  S
O126       Cr131   1.992       .  S
O127       Cr131   1.999       .  S
O127        C128   1.263       .  A
C128       C3350   1.484       .  S
Cr129       O132   1.763       .  S
Cr130       O132   1.770       .  S
Cr131       O132   1.774       .  S
O133       Cr151   1.994       .  S
O133        C141   1.263       .  A
O134       Cr151   1.976       .  S
O134        C135   1.261       .  A
C135        O136   1.264       .  A
C135       C2717   1.479       .  S
O136       Cr152   2.001       .  S
O137       Cr152   1.979       .  S
O137        C138   1.260       .  A
C138        O139   1.268       .  A
C138       C2789   1.487       .  S
O139       Cr153   2.016       .  S
O140       Cr153   1.985       .  S
O140        C141   1.261       .  A
C141       C2693   1.460       .  S
O142       Cr151   1.980       .  S
O142        C150   1.261       .  A
O143       Cr151   1.992       .  S
O143        C144   1.263       .  A
C144        O145   1.261       .  A
C144       C2774   1.464       .  S
O145       Cr152   1.989       .  S
O146       Cr152   2.002       .  S
O146        C147   1.266       .  A
C147        O148   1.261       .  A
C147       C2909   1.485   1_556  S
O148       Cr153   1.981       .  S
O149       Cr153   2.016       .  S
O149        C150   1.268       .  A
C150       C2750   1.488       .  S
Cr151       O154   1.762       .  S
Cr152       O154   1.768       .  S
Cr153       O154   1.770       .  S
O155       Cr173   2.023       .  S
O155        C163   1.271       .  A
O156       Cr173   1.962       .  S
O156        C157   1.257       .  A
C157        O158   1.272       .  A
C157       C2678   1.496       .  S
O158       Cr174   2.035       .  S
O159       Cr174   1.984       .  S
O159        C160   1.256       .  A
C160        O161   1.260       .  A
C160       C2621   1.482       .  S
O161       Cr175   1.998       .  S
O162       Cr175   1.960       .  S
O162        C163   1.261       .  A
C163       C2726   1.470       .  S
O164       Cr173   1.994       .  S
O164        C172   1.259       .  A
O165       Cr173   2.017       .  S
O165        C166   1.269       .  A
C166        O167   1.256       .  A
C166       C3029   1.489       .  S
O167       Cr174   1.956       .  S
O168       Cr174   2.046       .  S
O168        C169   1.277       .  A
C169        O170   1.259       .  A
C169       C2645   1.475       .  S
O170       Cr175   1.957       .  S
O171       Cr175   1.996       .  S
O171        C172   1.260       .  A
C172       C2597   1.475       .  S
Cr173       O176   1.776       .  S
Cr174       O176   1.776       .  S
Cr175       O176   1.761       .  S
O177       Cr195   1.989       .  S
O177        C185   1.263       .  A
O178       Cr195   2.016       .  S
O178        C179   1.269       .  A
C179        O180   1.264       .  A
C179       C2573   1.490       .  S
O180       Cr196   1.990       .  S
O181       Cr196   2.013       .  S
O181        C182   1.267       .  A
C182        O183   1.259       .  A
C182       C2702   1.483       .  S
O183       Cr197   1.969       .  S
O184       Cr197   1.999       .  S
O184        C185   1.265       .  A
C185       C2558   1.476       .  S
O186       Cr195   2.012       .  S
O186        C194   1.268       .  A
O187       Cr195   1.979       .  S
O187        C188   1.260       .  A
C188        O189   1.264       .  A
C188       C2870   1.475       .  S
O189       Cr196   2.008       .  S
O190       Cr196   1.996       .  S
O190        C191   1.263       .  A
C191        O192   1.263       .  A
C191       C2606   1.472       .  S
O192       Cr197   2.002       .  S
O193       Cr197   1.976       .  S
O193        C194   1.259       .  A
C194       C2525   1.488       .  S
Cr195       O198   1.764       .  S
Cr196       O198   1.769       .  S
Cr197       O198   1.762       .  S
O199       Cr217   1.984       .  S
O199        C207   1.262       .  A
O200       Cr217   1.985       .  S
O200        C201   1.259       .  A
C201        O202   1.262       .  A
C201       C2549   1.477       .  S
O202       Cr218   2.004       .  S
O203       Cr218   1.993       .  S
O203        C204   1.267       .  A
C204        O205   1.273       .  A
C204       C2510   1.498       .  S
O205       Cr219   2.017       .  S
O206       Cr219   1.993       .  S
O206        C207   1.263       .  A
C207       C2486   1.469       .  S
O208       Cr217   1.982       .  S
O208        C216   1.262       .  A
O209       Cr217   2.002       .  S
O209        C210   1.266       .  A
C210        O211   1.267       .  A
C210       C2741   1.484       .  S
O211       Cr218   2.000       .  S
O212       Cr218   1.991       .  S
O212        C213   1.259       .  A
C213        O214   1.261       .  A
C213       C3254   1.488   1_556  S
O214       Cr219   1.997       .  S
O215       Cr219   2.003       .  S
O215        C216   1.265       .  A
C216       C2462   1.490       .  S
Cr217       O220   1.762       .  S
Cr218       O220   1.774       .  S
Cr219       O220   1.772       .  S
O221       Cr239   1.980       .  S
O221        C229   1.259       .  A
O222       Cr239   2.023       .  S
O222        C223   1.272       .  A
C223        O224   1.263       .  A
C223       C2429   1.493       .  S
O224       Cr240   1.984       .  S
O225       Cr240   2.013       .  S
O225        C226   1.267       .  A
C226        O227   1.258       .  A
C226       C2477   1.488       .  S
O227       Cr241   1.974       .  S
O228       Cr241   1.993       .  S
O228        C229   1.263       .  A
C229       C2414   1.460       .  S
O230       Cr239   2.023       .  S
O230        C238   1.270       .  A
O231       Cr239   1.983       .  S
O231        C232   1.261       .  A
C232        O233   1.263       .  A
C232       C3134   1.486       .  S
O233       Cr240   2.000       .  S
O234       Cr240   1.992       .  S
O234        C235   1.262       .  A
C235        O236   1.265       .  A
C235       C2534   1.474       .  S
O236       Cr241   2.007       .  S
O237       Cr241   1.974       .  S
O237        C238   1.260       .  A
C238       C2654   1.493       .  S
Cr239       O242   1.770       .  S
Cr240       O242   1.769       .  S
Cr241       O242   1.761       .  S
O243       Cr261   1.997       .  S
O243        C251   1.263       .  A
O244       Cr261   1.978       .  S
O244        C245   1.260       .  A
C245        O246   1.264       .  A
C245       C2405   1.479       .  S
O246       Cr262   2.001       .  S
O247       Cr262   1.990       .  S
O247        C248   1.263       .  A
C248        O249   1.263       .  A
C248       C2381   1.484       .  S
O249       Cr263   1.992       .  S
O250       Cr263   1.990       .  S
O250        C251   1.260       .  A
C251       C2630   1.467       .  S
O252       Cr261   1.973       .  S
O252        C260   1.260       .  A
O253       Cr261   1.994       .  S
O253        C254   1.266       .  A
C254        O255   1.267       .  A
C254       C2453   1.487       .  S
O255       Cr262   2.004       .  S
O256       Cr262   2.006       .  S
O256        C257   1.265       .  A
C257        O258   1.263       .  A
C257       C2813   1.489   1_556  S
O258       Cr263   1.984       .  S
O259       Cr263   2.004       .  S
O259        C260   1.265       .  A
C260       C2765   1.482       .  S
Cr261       O264   1.759       .  S
Cr262       O264   1.771       .  S
Cr263       O264   1.771       .  S
O265       Cr283   1.985       .  S
O265        C273   1.259       .  A
O266       Cr283   1.984       .  S
O266        C267   1.262       .  A
C267        O268   1.265       .  A
C267       C2294   1.476       .  S
O268       Cr284   1.993       .  S
O269       Cr284   1.974       .  S
O269        C270   1.261       .  A
C270        O271   1.270       .  A
C270       C2366   1.488       .  S
O271       Cr285   2.021       .  S
O272       Cr285   1.999       .  S
O272        C273   1.262       .  A
C273       C2318   1.468       .  S
O274       Cr283   1.973       .  S
O274        C282   1.262       .  A
O275       Cr283   1.990       .  S
O275        C276   1.262       .  A
C276        O277   1.263       .  A
C276       C2342   1.483       .  S
O277       Cr284   1.995       .  S
O278       Cr284   1.986       .  S
O278        C279   1.262       .  A
C279        O280   1.264       .  A
C279       C2246   1.483       .  S
O280       Cr285   1.990       .  S
O281       Cr285   2.035       .  S
O281        C282   1.273       .  A
C282       C2261   1.489       .  S
Cr283       O286   1.760       .  S
Cr284       O286   1.764       .  S
Cr285       O286   1.768       .  S
O287       Cr305   2.017       .  S
O287        C295   1.271       .  A
O288       Cr305   1.965       .  S
O288        C289   1.257       .  A
C289        O290   1.269       .  A
C289       C2438   1.497       .  S
O290       Cr306   2.027       .  S
O291       Cr306   1.980       .  S
O291        C292   1.257       .  A
C292        O293   1.263       .  A
C292       C2309   1.479       .  S
O293       Cr307   2.007       .  S
O294       Cr307   1.961       .  S
O294        C295   1.262       .  A
C295       C2165   1.472       .  S
O296       Cr305   1.990       .  S
O296        C304   1.259       .  A
O297       Cr305   2.015       .  S
O297        C298   1.269       .  A
C298        O299   1.255       .  A
C298       C2141   1.477       .  S
O299       Cr306   1.950       .  S
O300       Cr306   2.035       .  S
O300        C301   1.273       .  A
C301        O302   1.259       .  A
C301       C2213   1.470       .  S
O302       Cr307   1.960       .  S
O303       Cr307   1.999       .  S
O303        C304   1.261       .  A
C304       C2189   1.479       .  S
Cr305       O308   1.774       .  S
Cr306       O308   1.774       .  S
Cr307       O308   1.761       .  S
O309       Cr327   1.987       .  S
O309        C317   1.262       .  A
O310       Cr327   2.019       .  S
O310        C311   1.270       .  A
C311        O312   1.265       .  A
C311       C2582   1.495       .  S
O312       Cr328   1.987       .  S
O313       Cr328   2.011       .  S
O313        C314   1.265       .  A
C314        O315   1.256       .  A
C314       C2126   1.478       .  S
O315       Cr329   1.965       .  S
O316       Cr329   2.000       .  S
O316        C317   1.266       .  A
C317       C2078   1.468       .  S
O318       Cr327   2.017       .  S
O318        C326   1.267       .  A
O319       Cr327   1.994       .  S
O319        C320   1.264       .  A
C320        O321   1.264       .  A
C320       C2045   1.487       .  S
O321       Cr328   1.996       .  S
O322       Cr328   1.992       .  S
O322        C323   1.262       .  A
C323        O324   1.265       .  A
C323       C2198   1.477       .  S
O324       Cr329   2.005       .  S
O325       Cr329   1.976       .  S
O325        C326   1.258       .  A
C326       C2093   1.490       .  S
Cr327       O330   1.771       .  S
Cr328       O330   1.770       .  S
Cr329       O330   1.763       .  S
O331       Cr349   2.001       .  S
O331        C339   1.265       .  A
O332       Cr349   1.963       .  S
O332        C333   1.258       .  A
C333        O334   1.266       .  A
C333       C2174   1.482       .  S
O334       Cr350   2.011       .  S
O335       Cr350   2.001       .  S
O335        C336   1.264       .  A
C336        O337   1.268       .  A
C336       C2021   1.500       .  S
O337       Cr351   2.017       .  S
O338       Cr351   1.985       .  S
O338        C339   1.262       .  A
C339       C2117   1.463       .  S
O340       Cr349   1.980       .  S
O340        C348   1.260       .  A
O341       Cr349   2.008       .  S
O341        C342   1.266       .  A
C342        O343   1.262       .  A
C342       C2270   1.484       .  S
O343       Cr350   1.994       .  S
O344       Cr350   2.004       .  S
O344        C345   1.267       .  A
C345        O346   1.263       .  A
C345       C1973   1.483       .  S
O346       Cr351   1.975       .  S
O347       Cr351   2.023       .  S
O347        C348   1.268       .  A
C348       C1997   1.492       .  S
Cr349       O352   1.762       .  S
Cr350       O352   1.771       .  S
Cr351       O352   1.768       .  S
O353       Cr371   2.024       .  S
O353        C361   1.270       .  A
O354       Cr371   1.968       .  S
O354        C355   1.260       .  A
C355        O356   1.273       .  A
C355       C2669   1.492       .  S
O356       Cr372   2.037       .  S
O357       Cr372   1.993       .  S
O357        C358   1.260       .  A
C358        O359   1.262       .  A
C358       C1958   1.482       .  S
O359       Cr373   1.997       .  S
O360       Cr373   1.963       .  S
O360        C361   1.259       .  A
C361       C2285   1.476       .  S
O362       Cr371   1.984       .  S
O362        C370   1.259       .  A
O363       Cr371   2.021       .  S
O363        C364   1.268       .  A
C364        O365   1.258       .  A
C364       C1925   1.489       .  S
O365       Cr372   1.967       .  S
O366       Cr372   2.042       .  S
O366        C367   1.274       .  A
C367        O368   1.255       .  A
C367       C2102   1.474       .  S
O368       Cr373   1.948       .  S
O369       Cr373   1.995       .  S
O369        C370   1.262       .  A
C370       C2222   1.469       .  S
Cr371       O374   1.776       .  S
Cr372       O374   1.778       .  S
Cr373       O374   1.762       .  S
O375       Cr393   1.991       .  S
O375        C383   1.262       .  A
O376       Cr393   1.969       .  S
O376        C377   1.260       .  A
C377        O378   1.267       .  A
C377       C2069   1.487       .  S
O378       Cr394   2.017       .  S
O379       Cr394   1.986       .  S
O379        C380   1.265       .  A
C380        O381   1.267       .  A
C380       C1910   1.483       .  S
O381       Cr395   2.001       .  S
O382       Cr395   2.002       .  S
O382        C383   1.264       .  A
C383       C1949   1.478       .  S
O384       Cr393   1.970       .  S
O384        C392   1.259       .  A
O385       Cr393   1.992       .  S
O385        C386   1.262       .  A
C386        O387   1.265       .  A
C386       C2006   1.484       .  S
O387       Cr394   2.007       .  S
O388       Cr394   1.991       .  S
O388        C389   1.262       .  A
C389        O390   1.263       .  A
C389       C1886   1.483       .  S
O390       Cr395   1.992       .  S
O391       Cr395   2.008       .  S
O391        C392   1.266       .  A
C392       C2333   1.479       .  S
Cr393       O396   1.757       .  S
Cr394       O396   1.771       .  S
Cr395       O396   1.775       .  S
O397       Cr415   2.037       .  S
O397        C405   1.276       .  A
O398       Cr415   1.970       .  S
O398        C399   1.260       .  A
C399        O400   1.273       .  A
C399       C1766   1.491       .  S
O400       Cr416   2.029       .  S
O401       Cr416   1.981       .  S
O401        C402   1.252       .  A
C402        O403   1.257       .  A
C402       C1829   1.477       .  S
O403       Cr417   1.991       .  S
O404       Cr417   1.957       .  S
O404        C405   1.263       .  A
C405       C1814   1.481       .  S
O406       Cr415   1.998       .  S
O406        C414   1.258       .  A
O407       Cr415   2.018       .  S
O407        C408   1.268       .  A
C408        O409   1.256       .  A
C408       C2054   1.490   1_554  S
O409       Cr416   1.958       .  S
O410       Cr416   2.057       .  S
O410        C411   1.281       .  A
C411        O412   1.259       .  A
C411       C1853   1.483       .  S
O412       Cr417   1.954       .  S
O413       Cr417   1.980       .  S
O413        C414   1.255       .  A
C414       C1781   1.472       .  S
Cr415       O418   1.783       .  S
Cr416       O418   1.777       .  S
Cr417       O418   1.765       .  S
O419       Cr437   1.995       .  S
O419        C427   1.263       .  A
O420       Cr437   1.966       .  S
O420        C421   1.259       .  A
C421        O422   1.267       .  A
C421       C1718   1.482       .  S
O422       Cr438   2.018       .  S
O423       Cr438   1.981       .  S
O423        C424   1.262       .  A
C424        O425   1.267       .  A
C424       C3365   1.481       .  S
O425       Cr439   2.006       .  S
O426       Cr439   1.986       .  S
O426        C427   1.260       .  A
C427       C1838   1.464       .  S
O428       Cr437   1.970       .  S
O428        C436   1.259       .  A
O429       Cr437   1.991       .  S
O429        C430   1.264       .  A
C430        O431   1.263       .  A
C430       C1742   1.484       .  S
O431       Cr438   1.993       .  S
O432       Cr438   2.009       .  S
O432        C433   1.267       .  A
C433        O434   1.262       .  A
C433       C1877   1.485       .  S
O434       Cr439   1.973       .  S
O435       Cr439   2.020       .  S
O435        C436   1.268       .  A
C436       C1694   1.488       .  S
Cr437       O440   1.754       .  S
Cr438       O440   1.770       .  S
Cr439       O440   1.769       .  S
O441       Cr459   1.997       .  S
O441        C449   1.263       .  A
O442       Cr459   1.974       .  S
O442        C443   1.260       .  A
C443        O444   1.268       .  A
C443       C1805   1.486       .  S
O444       Cr460   2.015       .  S
O445       Cr460   1.973       .  S
O445        C446   1.261       .  A
C446        O447   1.271       .  A
C446       C2846   1.489       .  S
O447       Cr461   2.023       .  S
O448       Cr461   1.981       .  S
O448        C449   1.257       .  A
C449       C1661   1.463       .  S
O450       Cr459   1.968       .  S
O450        C458   1.260       .  A
O451       Cr459   2.000       .  S
O451        C452   1.263       .  A
C452        O453   1.263       .  A
C452       C1685   1.474       .  S
O453       Cr460   1.997       .  S
O454       Cr460   2.005       .  S
O454        C455   1.264       .  A
C455        O456   1.260       .  A
C455       C1982   1.475       .  S
O456       Cr461   1.977       .  S
O457       Cr461   2.035       .  S
O457        C458   1.273       .  A
C458       C1637   1.494       .  S
Cr459       O462   1.758       .  S
Cr460       O462   1.767       .  S
Cr461       O462   1.769       .  S
O463       Cr481   2.026       .  S
O463        C471   1.272       .  A
O464       Cr481   1.960       .  S
O464        C465   1.257       .  A
C465        O466   1.269       .  A
C465       C1613   1.491       .  S
O466       Cr482   2.023       .  S
O467       Cr482   1.970       .  S
O467        C468   1.255       .  A
C468        O469   1.265       .  A
C468       C1670   1.479       .  S
O469       Cr483   2.005       .  S
O470       Cr483   1.956       .  S
O470        C471   1.260       .  A
C471       C1574   1.476       .  S
O472       Cr481   1.980       .  S
O472        C480   1.257       .  A
O473       Cr481   2.023       .  S
O473        C474   1.270       .  A
C474        O475   1.255       .  A
C474       C2150   1.478   1_554  S
O475       Cr482   1.940       .  S
O476       Cr482   2.042       .  S
O476        C477   1.273       .  A
C477        O478   1.256       .  A
C477       C1790   1.472       .  S
O478       Cr483   1.950       .  S
O479       Cr483   1.994       .  S
O479        C480   1.262       .  A
C480       C1589   1.468       .  S
Cr481       O484   1.769       .  S
Cr482       O484   1.770       .  S
Cr483       O484   1.756       .  S
O485       Cr503   1.993       .  S
O485        C493   1.262       .  A
O486       Cr503   2.028       .  S
O486        C487   1.273       .  A
C487        O488   1.261       .  A
C487       C1550   1.484       .  S
O488       Cr504   1.970       .  S
O489       Cr504   2.023       .  S
O489        C490   1.267       .  A
C490        O491   1.258       .  A
C490       C1526   1.491       .  S
O491       Cr505   1.972       .  S
O492       Cr505   1.992       .  S
O492        C493   1.262       .  A
C493       C1709   1.467       .  S
O494       Cr503   2.032       .  S
O494        C502   1.272       .  A
O495       Cr503   1.998       .  S
O495        C496   1.264   1_554  A
C496        O497   1.264   1_556  A
C496       C1934   1.496       .  S
O497       Cr504   2.004       .  S
O498       Cr504   1.983       .  S
O498        C499   1.260       .  A
C499        O500   1.265       .  A
C499       C1598   1.468       .  S
O500       Cr505   1.998       .  S
O501       Cr505   1.975       .  S
O501        C502   1.260       .  A
C502       C1862   1.499       .  S
Cr503       O506   1.770       .  S
Cr504       O506   1.772       .  S
Cr505       O506   1.761       .  S
O507       Cr525   2.005       .  S
O507        C515   1.265       .  A
O508       Cr525   1.961       .  S
O508        C509   1.257       .  A
C509        O510   1.267       .  A
C509       C1565   1.476       .  S
O510       Cr526   2.012       .  S
O511       Cr526   1.985       .  S
O511        C512   1.262       .  A
C512        O513   1.266       .  A
C512       C2981   1.488       .  S
O513       Cr527   2.010       .  S
O514       Cr527   1.992       .  S
O514        C515   1.262       .  A
C515       C1517   1.470       .  S
O516       Cr525   1.971       .  S
O516        C524   1.259       .  A
O517       Cr525   2.008       .  S
O517        C518   1.265       .  A
C518        O519   1.263       .  A
C518       C1646   1.486       .  S
O519       Cr526   1.998       .  S
O520       Cr526   2.002       .  S
O520        C521   1.268       .  A
C521        O522   1.263       .  A
C521       C2237   1.482       .  S
O522       Cr527   1.977       .  S
O523       Cr527   2.020       .  S
O523        C524   1.268       .  A
C524       C1733   1.480       .  S
Cr525       O528   1.758       .  S
Cr526       O528   1.766       .  S
Cr527       O528   1.769       .  S
O529       Cr547   1.991       .  S
O529        C537   1.262       .  A
O530       Cr547   2.020       .  S
O530        C531   1.272       .  A
C531        O532   1.264       .  A
C531       C3221   1.491       .  S
O532       Cr548   1.981       .  S
O533       Cr548   2.015   1_455  S
O533        C534   1.267   1_455  A
C534        O535   1.259       .  A
C534       C1445   1.490   1_655  S
O535       Cr549   1.980       .  S
O536       Cr549   1.989       .  S
O536        C537   1.262       .  A
C537       C1430   1.468       .  S
O538       Cr547   2.017       .  S
O538        C546   1.269       .  A
O539       Cr547   1.992       .  S
O539        C540   1.262       .  A
C540        O541   1.264       .  A
C540       C1406   1.491       .  S
O541       Cr548   2.004       .  S
O542       Cr548   1.992   1_455  S
O542        C543   1.263       .  A
C543        O544   1.265       .  A
C543       C1493   1.479       .  S
O544       Cr549   2.004   1_455  S
O545       Cr549   1.977       .  S
O545        C546   1.262       .  A
C546       C1469   1.493       .  S
Cr547       O550   1.775       .  S
Cr548       O550   1.773       .  S
Cr549       O550   1.768       .  S
O551       Cr569   1.992       .  S
O551        C559   1.264       .  A
O552       Cr569   1.976       .  S
O552        C553   1.258       .  A
C553        O554   1.261       .  A
C553       C1325   1.470       .  S
O554       Cr570   2.001       .  S
O555       Cr570   1.993       .  S
O555        C556   1.265       .  A
C556        O557   1.268       .  A
C556       C2357   1.492       .  S
O557       Cr571   2.006       .  S
O558       Cr571   1.993       .  S
O558        C559   1.264       .  A
C559       C1454   1.474       .  S
O560       Cr569   1.983       .  S
O560        C568   1.262       .  A
O561       Cr569   2.005       .  S
O561        C562   1.265       .  A
C562        O563   1.265       .  A
C562       C1373   1.477       .  S
O563       Cr570   2.000       .  S
O564       Cr570   1.990       .  S
O564        C565   1.261       .  A
C565        O566   1.261       .  A
C565       C1301   1.483       .  S
O566       Cr571   1.989       .  S
O567       Cr571   1.994       .  S
O567        C568   1.263       .  A
C568       C1358   1.482       .  S
Cr569       O572   1.761       .  S
Cr570       O572   1.772       .  S
Cr571       O572   1.772       .  S
O573       Cr591   2.005       .  S
O573        C581   1.266       .  A
O574       Cr591   2.023       .  S
O574        C575   1.271       .  A
C575        O576   1.258       .  A
C575       C2894   1.488       .  S
O576       Cr592   1.968       .  S
O577       Cr592   2.012   1_565  S
O577        C578   1.268   1_565  A
C578        O579   1.259       .  A
C578       C1262   1.486   1_545  S
O579       Cr593   1.972       .  S
O580       Cr593   1.976       .  S
O580        C581   1.260       .  A
C581       C1334   1.479       .  S
O582       Cr591   2.013       .  S
O582        C590   1.268       .  A
O583       Cr591   1.994       .  S
O583        C584   1.263       .  A
C584        O585   1.265       .  A
C584       C1238   1.491       .  S
O585       Cr592   2.006       .  S
O586       Cr592   1.981   1_565  S
O586        C587   1.258       .  A
C587        O588   1.261       .  A
C587       C1286   1.459       .  S
O588       Cr593   1.993   1_565  S
O589       Cr593   1.984       .  S
O589        C590   1.264       .  A
C590       C1502   1.491       .  S
Cr591       O594   1.769       .  S
Cr592       O594   1.770       .  S
Cr593       O594   1.760       .  S
O595       Cr613   1.985       .  S
O595        C603   1.261       .  A
O596       Cr613   1.978       .  S
O596        C597   1.261       .  A
C597        O598   1.266   1_565  A
C597       C1421   1.484   1_565  S
O598       Cr614   2.007   1_545  S
O599       Cr614   1.972       .  S
O599        C600   1.261       .  A
C600        O601   1.267       .  A
C600       C1901   1.484       .  S
O601       Cr615   2.007       .  S
O602       Cr615   1.988       .  S
O602        C603   1.261       .  A
C603       C1181   1.459       .  S
O604       Cr613   1.977       .  S
O604        C612   1.263       .  A
O605       Cr613   1.995   1_545  S
O605        C606   1.263       .  A
C606        O607   1.261       .  A
C606       C1349   1.472       .  S
O607       Cr614   1.988   1_545  S
O608       Cr614   1.997       .  S
O608        C609   1.263       .  A
C609        O610   1.261       .  A
C609       C1157   1.481       .  S
O610       Cr615   1.982       .  S
O611       Cr615   2.005       .  S
O611        C612   1.265       .  A
C612       C1205   1.484       .  S
Cr613       O616   1.760       .  S
Cr614       O616   1.766       .  S
Cr615       O616   1.769       .  S
O617       Cr635   1.994       .  S
O617        C625   1.262       .  A
O618       Cr635   2.007       .  S
O618        C619   1.267       .  A
C619        O620   1.263       .  A
C619       C3014   1.489       .  S
O620       Cr636   1.985       .  S
O621       Cr636   2.007       .  S
O621        C622   1.267       .  A
C622        O623   1.261       .  A
C622       C1190   1.484       .  S
O623       Cr637   1.978       .  S
O624       Cr637   1.995       .  S
O624        C625   1.262       .  A
C625       C1133   1.470       .  S
O626       Cr635   2.006       .  S
O626        C634   1.266       .  A
O627       Cr635   1.988       .  S
O627        C628   1.262       .  A
C628        O629   1.265       .  A
C628       C1109   1.488       .  S
O629       Cr636   2.005       .  S
O630       Cr636   2.000       .  S
O630        C631   1.264       .  A
C631        O632   1.262       .  A
C631       C1478   1.474       .  S
O632       Cr637   1.995       .  S
O633       Cr637   1.969       .  S
O633        C634   1.260       .  A
C634       C1277   1.480       .  S
Cr635       O638   1.768       .  S
Cr636       O638   1.765       .  S
Cr637       O638   1.763       .  S
O639       Cr657   1.960       .  S
O639        C647   1.263       .  A
O640       Cr657   1.993   1_655  S
O640        C641   1.257       .  A
C641        O642   1.255       .  A
C641       C1142   1.474       .  S
O642       Cr658   1.990       .  S
O643       Cr658   2.020   1_455  S
O643        C644   1.268       .  A
C644        O645   1.262       .  A
C644       C2030   1.502       .  S
O645       Cr659   1.978       .  S
O646       Cr659   2.030       .  S
O646        C647   1.275       .  A
C647       C1253   1.476       .  S
O648       Cr657   1.989       .  S
O648        C656   1.257       .  A
O649       Cr657   1.951   1_655  S
O649        C650   1.260       .  A
C650        O651   1.276       .  A
C650       C1214   1.477       .  S
O651       Cr658   2.043       .  S
O652       Cr658   1.957       .  S
O652        C653   1.257   1_655  A
C653        O654   1.269       .  A
C653       C1085   1.481       .  S
O654       Cr659   2.016       .  S
O655       Cr659   2.004       .  S
O655        C656   1.260       .  A
C656       C1382   1.481       .  S
Cr657       O660   1.764       .  S
Cr658       O660   1.779   1_655  S
Cr659       O660   1.775       .  S
O661       Cr679   1.957       .  S
O661        C669   1.259       .  A
O662       Cr679   1.988       .  S
O662        C663   1.257       .  A
C663        O664   1.256       .  A
C663       C1037   1.477   1_655  S
O664       Cr680   1.991       .  S
O665       Cr680   2.015       .  S
O665        C666   1.268       .  A
C666        O667   1.258       .  A
C666       C2390   1.479       .  S
O667       Cr681   1.950       .  S
O668       Cr681   2.036       .  S
O668        C669   1.274       .  A
C669        C989   1.477       .  S
O670       Cr679   2.003       .  S
O670        C678   1.261       .  A
O671       Cr679   1.952       .  S
O671        C672   1.262       .  A
C672        O673   1.274   1_655  A
C672       C1061   1.470   1_655  S
O673       Cr680   2.023   1_455  S
O674       Cr680   1.961       .  S
O674        C675   1.256       .  A
C675        O676   1.268       .  A
C675       C1094   1.487       .  S
O676       Cr681   2.019       .  S
O677       Cr681   1.996       .  S
O677        C678   1.261       .  A
C678       C1013   1.484       .  S
Cr679       O682   1.762       .  S
Cr680       O682   1.778       .  S
Cr681       O682   1.776       .  S
O683       Cr701   1.999       .  S
O683        C691   1.264       .  A
O684       Cr701   2.013       .  S
O684        C685   1.269       .  A
C685        O686   1.266       .  A
C685       C1757   1.496       .  S
O686       Cr702   1.994       .  S
O687       Cr702   2.010   1_545  S
O687        C688   1.266       .  A
C688        O689   1.259   1_545  A
C688        C950   1.488       .  S
O689       Cr703   1.979       .  S
O690       Cr703   1.984       .  S
O690        C691   1.261       .  A
C691       C1046   1.470       .  S
O692       Cr701   2.008       .  S
O692        C700   1.266       .  A
O693       Cr701   2.004       .  S
O693        C694   1.266       .  A
C694        O695   1.264       .  A
C694       C1229   1.493       .  S
O695       Cr702   2.002       .  S
O696       Cr702   1.999   1_545  S
O696        C697   1.265       .  A
C697        O698   1.262       .  A
C697        C965   1.473       .  S
O698       Cr703   1.992   1_545  S
O699       Cr703   1.986       .  S
O699        C700   1.263       .  A
C700        C926   1.492       .  S
Cr701       O704   1.771       .  S
Cr702       O704   1.770       .  S
Cr703       O704   1.768       .  S
O705       Cr723   1.996       .  S
O705        C713   1.264       .  A
O706       Cr723   1.967       .  S
O706        C707   1.257       .  A
C707        O708   1.267       .  A
C707        C869   1.485       .  S
O708       Cr724   2.014       .  S
O709       Cr724   1.984       .  S
O709        C710   1.264       .  A
C710        O711   1.269       .  A
C710       C2798   1.491       .  S
O711       Cr725   2.011       .  S
O712       Cr725   1.984       .  S
O712        C713   1.261       .  A
C713        C941   1.463       .  S
O714       Cr723   1.967       .  S
O714        C722   1.257       .  A
O715       Cr723   1.997       .  S
O715        C716   1.264       .  A
C716        O717   1.263       .  A
C716        C902   1.480       .  S
O717       Cr724   1.993       .  S
O718       Cr724   2.000       .  S
O718        C719   1.265       .  A
C719        O720   1.261       .  A
C719       C1310   1.484       .  S
O720       Cr725   1.982       .  S
O721       Cr725   2.013       .  S
O721        C722   1.266       .  A
C722       C1070   1.476       .  S
Cr723       O726   1.756       .  S
Cr724       O726   1.767       .  S
Cr725       O726   1.770       .  S
O727       Cr745   1.994       .  S
O727        C735   1.263       .  A
O728       Cr745   1.977       .  S
O728        C729   1.262   1_545  A
C729        O730   1.266       .  A
C729        C830   1.486       .  S
O730       Cr746   2.003   1_565  S
O731       Cr746   1.999       .  S
O731        C732   1.265       .  A
C732        O733   1.266       .  A
C732       C2501   1.500       .  S
O733       Cr747   2.009       .  S
O734       Cr747   1.986       .  S
O734        C735   1.262       .  A
C735        C854   1.472       .  S
O736       Cr745   1.974       .  S
O736        C744   1.259       .  A
O737       Cr745   1.990   1_565  S
O737        C738   1.261       .  A
C738        O739   1.266       .  A
C738       C1022   1.480       .  S
O739       Cr746   2.008   1_565  S
O740       Cr746   2.003       .  S
O740        C741   1.266       .  A
C741        O742   1.261       .  A
C741       C1166   1.481       .  S
O742       Cr747   1.972       .  S
O743       Cr747   2.011       .  S
O743        C744   1.265       .  A
C744        C893   1.484       .  S
Cr745       O748   1.764       .  S
Cr746       O748   1.773       .  S
Cr747       O748   1.775       .  S
O749       Cr767   1.996       .  S
O749        C757   1.262       .  A
O750       Cr767   2.012       .  S
O750        C751   1.270       .  A
C751        O752   1.263       .  A
C751       C1622   1.481       .  S
O752       Cr768   1.981   1_455  S
O753       Cr768   2.010       .  S
O753        C754   1.264       .  A
C754        O755   1.258   1_655  A
C754        C845   1.471       .  S
O755       Cr769   1.978       .  S
O756       Cr769   1.982       .  S
O756        C757   1.259       .  A
C757        C878   1.466       .  S
O758       Cr767   2.014       .  S
O758        C766   1.269       .  A
O759       Cr767   1.996       .  S
O759        C760   1.264       .  A
C760        O761   1.263       .  A
C760       C1397   1.488       .  S
O761       Cr768   2.003   1_455  S
O762       Cr768   1.992       .  S
O762        C763   1.263       .  A
C763        O764   1.264       .  A
C763        C797   1.473       .  S
O764       Cr769   1.992   1_655  S
O765       Cr769   1.977       .  S
O765        C766   1.261       .  A
C766        C974   1.487       .  S
Cr767       O770   1.765       .  S
Cr768       O770   1.769   1_655  S
Cr769       O770   1.762       .  S
O771       Cr789   2.000       .  S
O771        C779   1.263       .  A
O772       Cr789   2.006       .  S
O772        C773   1.267       .  A
C773        O774   1.262       .  A
C773       C1541   1.490       .  S
O774       Cr790   1.987       .  S
O775       Cr790   2.005       .  S
O775        C776   1.267       .  A
C776        O777   1.263       .  A
C776        C998   1.483       .  S
O777       Cr791   1.979       .  S
O778       Cr791   1.988       .  S
O778        C779   1.260       .  A
C779        C821   1.468       .  S
O780       Cr789   2.004       .  S
O780        C788   1.266       .  A
O781       Cr789   1.988       .  S
O781        C782   1.262       .  A
C782        O783   1.265       .  A
C782       C1118   1.487       .  S
O783       Cr790   2.006       .  S
O784       Cr790   2.007       .  S
O784        C785   1.265       .  A
C785        O786   1.261       .  A
C785        C917   1.481       .  S
O786       Cr791   1.981       .  S
O787       Cr791   1.978       .  S
O787        C788   1.262       .  A
C788        C806   1.483       .  S
Cr789       O792   1.770       .  S
Cr790       O792   1.770       .  S
Cr791       O792   1.762       .  S
C793        C794   1.403       .  A
C793        C798   1.405       .  A
C793        H803   1.083       .  S
C794        C799   1.470       .  S
C794        C795   1.404       .  A
C795        C796   1.390       .  A
C795        O800   1.373       .  S
C796        C797   1.403       .  A
C796        H801   1.084       .  S
C797        C798   1.411       .  A
C798        O802   1.371       .  S
C799        C804   1.405   1_545  A
C799        C808   1.399   1_545  A
O800        H816   0.992       .  S
O802        H813   0.991       .  S
C804        C805   1.399       .  A
C804        O809   1.372       .  S
C805        C806   1.407       .  A
C805        H810   1.083       .  S
C806        C807   1.415       .  A
C807        C808   1.398       .  A
C807        O811   1.371       .  S
C808        H812   1.084   1_565  S
O809        H814   0.992   1_565  S
O811        H815   0.992       .  S
C817        C818   1.404       .  A
C817        C822   1.401       .  A
C817        H827   1.084       .  S
C818        C823   1.481   1_554  S
C818        C819   1.409       .  A
C819        C820   1.401       .  A
C819        O824   1.372   1_554  S
C820        C821   1.403       .  A
C820        H825   1.084       .  S
C821        C822   1.406       .  A
C822        O826   1.372       .  S
C823        C828   1.405       .  A
C823        C832   1.403       .  A
O824        H840   0.992       .  S
O826        H837   0.992       .  S
C828        C829   1.400       .  A
C828        O833   1.371       .  S
C829        C830   1.410       .  A
C829        H834   1.083       .  S
C830        C831   1.413       .  A
C831        C832   1.399       .  A
C831        O835   1.371   1_565  S
C832        H836   1.084   1_556  S
O833        H838   0.991       .  S
O835        H839   0.992       .  S
C841        C842   1.407   1_554  A
C841        C846   1.400       .  A
C841        H851   1.084   1_554  S
C842        C847   1.486       .  S
C842        C843   1.412   1_556  A
C843        C844   1.398       .  A
C843        O848   1.372       .  S
C844        C845   1.400       .  A
C844        H849   1.084       .  S
C845        C846   1.406       .  A
C846        O850   1.372   1_655  S
C847        C852   1.412       .  A
C847        C856   1.404       .  A
O848        H864   0.994       .  S
O850        H861   0.991       .  S
C852        C853   1.406       .  A
C852        O857   1.374       .  S
C853        C854   1.402       .  A
C853        H858   1.084       .  S
C854        C855   1.409       .  A
C855        C856   1.394       .  A
C855        O859   1.374       .  S
C856        H860   1.084       .  S
O857        H862   0.992       .  S
O859        H863   0.992       .  S
C865        C866   1.402       .  A
C865        C870   1.398       .  A
C865        H875   1.084   1_556  S
C866        C871   1.481   1_556  S
C866        C867   1.406       .  A
C867        C868   1.402       .  A
C867        O872   1.373       .  S
C868        C869   1.408       .  A
C868        H873   1.083       .  S
C869        C870   1.414       .  A
C870        O874   1.372       .  S
C871        C876   1.409       .  A
C871        C880   1.405       .  A
O872        H888   0.992       .  S
O874        H885   0.992       .  S
C876        C877   1.398       .  A
C876        O881   1.372   1_554  S
C877        C878   1.402       .  A
C877        H882   1.084       .  S
C878        C879   1.405       .  A
C879        C880   1.402       .  A
C879        O883   1.371       .  S
C880        H884   1.084       .  S
O881        H886   0.992       .  S
O883        H887   0.992       .  S
C889        C890   1.400   1_655  A
C889        C894   1.403       .  A
C889        H899   1.083       .  S
C890        C895   1.474       .  S
C890        C891   1.405   1_455  A
C891        C892   1.395       .  A
C891        O896   1.372       .  S
C892        C893   1.406       .  A
C892        H897   1.083       .  S
C893        C894   1.415       .  A
C894        O898   1.371       .  S
C895        C900   1.406       .  A
C895        C904   1.399       .  A
O896        H912   0.991   1_655  S
O898        H909   0.992       .  S
C900        C901   1.405       .  A
C900        O905   1.371       .  S
C901        C902   1.407       .  A
C901        H906   1.083       .  S
C902        C903   1.413       .  A
C903        C904   1.394       .  A
C903        O907   1.372       .  S
C904        H908   1.084       .  S
O905        H910   0.993       .  S
O907        H911   0.992       .  S
C913        C914   1.406       .  A
C913        C918   1.410       .  A
C913        H923   1.083       .  S
C914        C919   1.479       .  S
C914        C915   1.402       .  A
C915        C916   1.392       .  A
C915        O920   1.373       .  S
C916        C917   1.406       .  A
C916        H921   1.084       .  S
C917        C918   1.411       .  A
C918        O922   1.371       .  S
C919        C924   1.407       .  A
C919        C928   1.398       .  A
O920        H936   0.992       .  S
O922        H933   0.992       .  S
C924        C925   1.403   1_655  A
C924        O929   1.372       .  S
C925        C926   1.407       .  A
C925        H930   1.083       .  S
C926        C927   1.417       .  A
C927        C928   1.402   1_455  A
C927        O931   1.371       .  S
C928        H932   1.084       .  S
O929        H934   0.992       .  S
O931        H935   0.992       .  S
C937        C938   1.406       .  A
C937        C942   1.399       .  A
C937        H947   1.083       .  S
C938        C943   1.485       .  S
C938        C939   1.411       .  A
C939        C940   1.400       .  A
C939        O944   1.371       .  S
C940        C941   1.400       .  A
C940        H945   1.084       .  S
C941        C942   1.404       .  A
C942        O946   1.372       .  S
C943        C948   1.407   1_556  A
C943        C952   1.404       .  A
O944        H960   0.991       .  S
O946        H957   0.992       .  S
C948        C949   1.404       .  A
C948        O953   1.373       .  S
C949        C950   1.409       .  A
C949        H954   1.083       .  S
C950        C951   1.412       .  A
C951        C952   1.398   1_554  A
C951        O955   1.371   1_545  S
C952        H956   1.084       .  S
O953        H958   0.992       .  S
O955        H959   0.992       .  S
C961        C962   1.402       .  A
C961        C966   1.397       .  A
C961        H971   1.084       .  S
C962        C967   1.480       .  S
C962        C963   1.408       .  A
C963        C964   1.405       .  A
C963        O968   1.371       .  S
C964        C965   1.405       .  A
C964        H969   1.084       .  S
C965        C966   1.408       .  A
C966        O970   1.373       .  S
C967        C972   1.405       .  A
C967        C976   1.403       .  A
O968        H984   0.991       .  S
O970        H981   0.992       .  S
C972        C973   1.399       .  A
C972        O977   1.372       .  S
C973        C974   1.407       .  A
C973        H978   1.083       .  S
C974        C975   1.414       .  A
C975        C976   1.403       .  A
C975        O979   1.372       .  S
C976        H980   1.084       .  S
O977        H982   0.991       .  S
O979        H983   0.992       .  S
C985        C986   1.403       .  A
C985        C990   1.401       .  A
C985        H995   1.083       .  S
C986        C991   1.476       .  S
C986        C987   1.406       .  A
C987        C988   1.396       .  A
C987        O992   1.372   1_556  S
C988        C989   1.406       .  A
C988        H993   1.084       .  S
C989        C990   1.410       .  A
C990        O994   1.371       .  S
C991        C996   1.408       .  A
C991       C1000   1.399   1_556  A
O992       H1008   0.992       .  S
O994       H1005   0.991       .  S
C996        C997   1.399   1_556  A
C996       O1001   1.372       .  S
C997        C998   1.406       .  A
C997       H1002   1.083       .  S
C998        C999   1.415       .  A
C999       C1000   1.399       .  A
C999       O1003   1.371       .  S
C1000      H1004   1.084       .  S
O1001      H1006   0.992       .  S
O1003      H1007   0.992       .  S
C1009      C1010   1.403       .  A
C1009      C1014   1.400       .  A
C1009      H1019   1.083       .  S
C1010      C1015   1.492       .  S
C1010      C1011   1.413       .  A
C1011      C1012   1.407       .  A
C1011      O1016   1.371       .  S
C1012      C1013   1.404       .  A
C1012      H1017   1.083       .  S
C1013      C1014   1.413       .  A
C1014      O1018   1.373       .  S
C1015      C1020   1.413       .  A
C1015      C1024   1.403       .  A
O1016      H1032   0.991       .  S
O1018      H1029   0.992       .  S
C1020      C1021   1.410       .  A
C1020      O1025   1.372       .  S
C1021      C1022   1.404       .  A
C1021      H1026   1.083       .  S
C1022      C1023   1.409       .  A
C1023      C1024   1.399       .  A
C1023      O1027   1.371       .  S
C1024      H1028   1.084       .  S
O1025      H1030   0.992       .  S
O1027      H1031   0.992       .  S
C1033      C1034   1.402       .  A
C1033      C1038   1.397   1_455  A
C1033      H1043   1.084   1_556  S
C1034      C1039   1.482   1_556  S
C1034      C1035   1.409       .  A
C1035      C1036   1.406       .  A
C1035      O1040   1.372       .  S
C1036      C1037   1.404       .  A
C1036      H1041   1.083       .  S
C1037      C1038   1.409   1_455  A
C1038      O1042   1.372       .  S
C1039      C1044   1.408       .  A
C1039      C1048   1.407       .  A
O1040      H1056   0.992       .  S
O1042      H1053   0.992       .  S
C1044      C1045   1.398       .  A
C1044      O1049   1.372   1_554  S
C1045      C1046   1.402       .  A
C1045      H1050   1.084       .  S
C1046      C1047   1.406       .  A
C1047      C1048   1.405       .  A
C1047      O1051   1.371       .  S
C1048      H1052   1.083       .  S
O1049      H1054   0.992       .  S
O1051      H1055   0.992       .  S
C1057      C1058   1.405       .  A
C1057      C1062   1.403       .  A
C1057      H1067   1.083       .  S
C1058      C1063   1.479       .  S
C1058      C1059   1.408       .  A
C1059      C1060   1.392       .  A
C1059      O1064   1.372       .  S
C1060      C1061   1.402       .  A
C1060      H1065   1.084       .  S
C1061      C1062   1.408       .  A
C1062      O1066   1.372       .  S
C1063      C1068   1.407   1_565  A
C1063      C1072   1.403   1_565  A
O1064      H1080   0.992       .  S
O1066      H1077   0.992       .  S
C1068      C1069   1.400       .  A
C1068      O1073   1.372   1_545  S
C1069      C1070   1.406       .  A
C1069      H1074   1.084       .  S
C1070      C1071   1.410       .  A
C1071      C1072   1.396       .  A
C1071      O1075   1.372       .  S
C1072      H1076   1.084       .  S
O1073      H1078   0.991       .  S
O1075      H1079   0.991       .  S
C1081      C1082   1.403       .  A
C1081      C1086   1.399       .  A
C1081      H1091   1.083       .  S
C1082      C1087   1.491       .  S
C1082      C1083   1.414   1_655  A
C1083      C1084   1.402       .  A
C1083      O1088   1.372       .  S
C1084      C1085   1.402       .  A
C1084      H1089   1.084       .  S
C1085      C1086   1.412   1_455  A
C1086      O1090   1.372       .  S
C1087      C1092   1.414       .  A
C1087      C1096   1.401       .  A
O1088      H1104   0.992       .  S
O1090      H1101   0.992       .  S
C1092      C1093   1.404       .  A
C1092      O1097   1.372       .  S
C1093      C1094   1.405       .  A
C1093      H1098   1.083       .  S
C1094      C1095   1.415       .  A
C1095      C1096   1.397       .  A
C1095      O1099   1.372   1_655  S
C1096      H1100   1.083   1_655  S
O1097      H1102   0.992       .  S
O1099      H1103   0.992       .  S
C1105      C1106   1.404       .  A
C1105      C1110   1.403       .  A
C1105      H1115   1.083       .  S
C1106      C1111   1.487       .  S
C1106      C1107   1.408       .  A
C1107      C1108   1.401       .  A
C1107      O1112   1.372       .  S
C1108      C1109   1.408       .  A
C1108      H1113   1.083       .  S
C1109      C1110   1.412       .  A
C1110      O1114   1.371       .  S
C1111      C1116   1.409       .  A
C1111      C1120   1.402       .  A
O1112      H1128   0.992       .  S
O1114      H1125   0.993       .  S
C1116      C1117   1.404       .  A
C1116      O1121   1.372       .  S
C1117      C1118   1.407       .  A
C1117      H1122   1.084       .  S
C1118      C1119   1.413       .  A
C1119      C1120   1.401       .  A
C1119      O1123   1.371       .  S
C1120      H1124   1.084       .  S
O1121      H1126   0.992       .  S
O1123      H1127   0.992       .  S
C1129      C1130   1.402       .  A
C1129      C1134   1.398       .  A
C1129      H1139   1.084       .  S
C1130      C1135   1.479       .  S
C1130      C1131   1.410       .  A
C1131      C1132   1.402       .  A
C1131      O1136   1.371       .  S
C1132      C1133   1.401       .  A
C1132      H1137   1.084       .  S
C1133      C1134   1.409       .  A
C1134      O1138   1.372       .  S
C1135      C1140   1.409       .  A
C1135      C1144   1.400       .  A
O1136      H1152   0.991       .  S
O1138      H1149   0.991       .  S
C1140      C1141   1.406       .  A
C1140      O1145   1.371       .  S
C1141      C1142   1.405       .  A
C1141      H1146   1.084       .  S
C1142      C1143   1.408       .  A
C1143      C1144   1.394       .  A
C1143      O1147   1.372       .  S
C1144      H1148   1.084       .  S
O1145      H1150   0.992       .  S
O1147      H1151   0.991       .  S
C1153      C1154   1.397   1_545  A
C1153      C1158   1.396   1_545  A
C1153      H1163   1.084       .  S
C1154      C1159   1.471   1_565  S
C1154      C1155   1.406       .  A
C1155      C1156   1.400       .  A
C1155      O1160   1.372       .  S
C1156      C1157   1.407       .  A
C1156      H1161   1.083       .  S
C1157      C1158   1.414       .  A
C1158      O1162   1.372   1_565  S
C1159      C1164   1.404       .  A
C1159      C1168   1.398   1_545  A
O1160      H1176   0.991       .  S
O1162      H1173   0.992       .  S
C1164      C1165   1.398       .  A
C1164      O1169   1.372       .  S
C1165      C1166   1.408       .  A
C1165      H1170   1.083       .  S
C1166      C1167   1.414       .  A
C1167      C1168   1.396   1_545  A
C1167      O1171   1.371   1_545  S
C1168      H1172   1.084       .  S
O1169      H1174   0.992       .  S
O1171      H1175   0.992   1_565  S
C1177      C1178   1.407       .  A
C1177      C1182   1.399       .  A
C1177      H1187   1.083       .  S
C1178      C1183   1.485       .  S
C1178      C1179   1.410       .  A
C1179      C1180   1.398       .  A
C1179      O1184   1.371       .  S
C1180      C1181   1.401       .  A
C1180      H1185   1.084       .  S
C1181      C1182   1.403       .  A
C1182      O1186   1.373       .  S
C1183      C1188   1.407       .  A
C1183      C1192   1.406       .  A
O1184      H1200   0.991       .  S
O1186      H1197   0.992       .  S
C1188      C1189   1.398       .  A
C1188      O1193   1.371       .  S
C1189      C1190   1.407       .  A
C1189      H1194   1.083       .  S
C1190      C1191   1.412       .  A
C1191      C1192   1.399       .  A
C1191      O1195   1.372       .  S
C1192      H1196   1.083       .  S
O1193      H1198   0.992       .  S
O1195      H1199   0.992       .  S
C1201      C1202   1.400       .  A
C1201      C1206   1.403       .  A
C1201      H1211   1.084       .  S
C1202      C1207   1.479       .  S
C1202      C1203   1.408       .  A
C1203      C1204   1.396       .  A
C1203      O1208   1.373       .  S
C1204      C1205   1.404       .  A
C1204      H1209   1.083       .  S
C1205      C1206   1.415       .  A
C1206      O1210   1.372       .  S
C1207      C1212   1.404       .  A
C1207      C1216   1.406       .  A
O1208      H1224   0.992       .  S
O1210      H1221   0.992       .  S
C1212      C1213   1.394       .  A
C1212      O1217   1.372       .  S
C1213      C1214   1.405       .  A
C1213      H1218   1.083       .  S
C1214      C1215   1.409       .  A
C1215      C1216   1.404       .  A
C1215      O1219   1.370       .  S
C1216      H1220   1.084       .  S
O1217      H1222   0.992       .  S
O1219      H1223   0.992       .  S
C1225      C1226   1.404   1_545  A
C1225      C1230   1.402   1_545  A
C1225      H1235   1.083       .  S
C1226      C1231   1.497   1_565  S
C1226      C1227   1.413       .  A
C1227      C1228   1.406       .  A
C1227      O1232   1.371       .  S
C1228      C1229   1.406       .  A
C1228      H1233   1.083       .  S
C1229      C1230   1.415       .  A
C1230      O1234   1.372       .  S
C1231      C1236   1.411       .  A
C1231      C1240   1.407       .  A
O1232      H1248   0.991       .  S
O1234      H1245   0.992       .  S
C1236      C1237   1.404       .  A
C1236      O1241   1.372   1_545  S
C1237      C1238   1.406       .  A
C1237      H1242   1.083       .  S
C1238      C1239   1.412       .  A
C1239      C1240   1.405       .  A
C1239      O1243   1.372       .  S
C1240      H1244   1.083       .  S
O1241      H1246   0.992   1_565  S
O1243      H1247   0.991       .  S
C1249      C1250   1.403       .  A
C1249      C1254   1.398       .  A
C1249      H1259   1.083       .  S
C1250      C1255   1.482       .  S
C1250      C1251   1.409       .  A
C1251      C1252   1.400       .  A
C1251      O1256   1.371       .  S
C1252      C1253   1.405       .  A
C1252      H1257   1.084       .  S
C1253      C1254   1.409       .  A
C1254      O1258   1.373       .  S
C1255      C1260   1.407       .  A
C1255      C1264   1.403       .  A
O1256      H1272   0.991       .  S
O1258      H1269   0.992       .  S
C1260      C1261   1.401       .  A
C1260      O1265   1.373       .  S
C1261      C1262   1.407       .  A
C1261      H1266   1.083       .  S
C1262      C1263   1.414       .  A
C1263      C1264   1.397       .  A
C1263      O1267   1.372   1_565  S
C1264      H1268   1.084       .  S
O1265      H1270   0.992       .  S
O1267      H1271   0.992       .  S
C1273      C1274   1.398       .  A
C1273      C1278   1.400       .  A
C1273      H1283   1.084       .  S
C1274      C1279   1.468   1_655  S
C1274      C1275   1.404       .  A
C1275      C1276   1.394       .  A
C1275      O1280   1.373       .  S
C1276      C1277   1.406       .  A
C1276      H1281   1.083       .  S
C1277      C1278   1.415       .  A
C1278      O1282   1.371       .  S
C1279      C1284   1.406       .  A
C1279      C1288   1.402       .  A
O1280      H1296   0.992   1_655  S
O1282      H1293   0.992       .  S
C1284      C1285   1.395       .  A
C1284      O1289   1.372       .  S
C1285      C1286   1.400       .  A
C1285      H1290   1.084       .  S
C1286      C1287   1.406       .  A
C1287      C1288   1.399       .  A
C1287      O1291   1.372       .  S
C1288      H1292   1.084       .  S
O1289      H1294   0.992       .  S
O1291      H1295   0.991       .  S
C1297      C1298   1.401       .  A
C1297      C1302   1.402       .  A
C1297      H1307   1.084       .  S
C1298      C1303   1.471       .  S
C1298      C1299   1.401       .  A
C1299      C1300   1.395       .  A
C1299      O1304   1.372       .  S
C1300      C1301   1.409       .  A
C1300      H1305   1.083       .  S
C1301      C1302   1.412       .  A
C1302      O1306   1.371       .  S
C1303      C1308   1.401       .  A
C1303      C1312   1.400       .  A
O1304      H1320   0.992       .  S
O1306      H1317   0.992       .  S
C1308      C1309   1.396       .  A
C1308      O1313   1.372       .  S
C1309      C1310   1.408       .  A
C1309      H1314   1.083       .  S
C1310      C1311   1.414       .  A
C1311      C1312   1.402       .  A
C1311      O1315   1.372       .  S
C1312      H1316   1.084       .  S
O1313      H1318   0.992       .  S
O1315      H1319   0.992       .  S
C1321      C1322   1.404       .  A
C1321      C1326   1.400       .  A
C1321      H1331   1.083       .  S
C1322      C1327   1.481       .  S
C1322      C1323   1.411       .  A
C1323      C1324   1.395       .  A
C1323      O1328   1.372       .  S
C1324      C1325   1.400       .  A
C1324      H1329   1.083       .  S
C1325      C1326   1.409       .  A
C1326      O1330   1.372       .  S
C1327      C1332   1.411       .  A
C1327      C1336   1.399       .  A
O1328      H1344   0.992       .  S
O1330      H1341   0.991       .  S
C1332      C1333   1.409       .  A
C1332      O1337   1.372       .  S
C1333      C1334   1.405       .  A
C1333      H1338   1.083       .  S
C1334      C1335   1.414       .  A
C1335      C1336   1.388       .  A
C1335      O1339   1.373       .  S
C1336      H1340   1.084       .  S
O1337      H1342   0.992       .  S
O1339      H1343   0.992       .  S
C1345      C1346   1.400       .  A
C1345      C1350   1.395       .  A
C1345      H1355   1.084       .  S
C1346      C1351   1.472       .  S
C1346      C1347   1.405       .  A
C1347      C1348   1.403       .  A
C1347      O1352   1.371       .  S
C1348      C1349   1.405       .  A
C1348      H1353   1.084       .  S
C1349      C1350   1.409       .  A
C1350      O1354   1.373       .  S
C1351      C1356   1.406       .  A
C1351      C1360   1.397       .  A
O1352      H1368   0.991       .  S
O1354      H1365   0.992       .  S
C1356      C1357   1.401   1_655  A
C1356      O1361   1.372       .  S
C1357      C1358   1.406       .  A
C1357      H1362   1.083       .  S
C1358      C1359   1.416       .  A
C1359      C1360   1.396   1_455  A
C1359      O1363   1.372       .  S
C1360      H1364   1.084       .  S
O1361      H1366   0.991       .  S
O1363      H1367   0.993       .  S
C1369      C1370   1.406       .  A
C1369      C1374   1.406       .  A
C1369      H1379   1.083       .  S
C1370      C1375   1.489       .  S
C1370      C1371   1.410       .  A
C1371      C1372   1.403       .  A
C1371      O1376   1.372       .  S
C1372      C1373   1.402       .  A
C1372      H1377   1.084       .  S
C1373      C1374   1.408       .  A
C1374      O1378   1.372       .  S
C1375      C1380   1.411   1_545  A
C1375      C1384   1.403   1_545  A
O1376      H1392   0.992       .  S
O1378      H1389   0.992       .  S
C1380      C1381   1.409       .  A
C1380      O1385   1.372   1_565  S
C1381      C1382   1.404       .  A
C1381      H1386   1.083       .  S
C1382      C1383   1.410       .  A
C1383      C1384   1.401       .  A
C1383      O1387   1.372       .  S
C1384      H1388   1.084   1_565  S
O1385      H1390   0.992       .  S
O1387      H1391   0.991       .  S
C1393      C1394   1.401       .  A
C1393      C1398   1.404       .  A
C1393      H1403   1.084       .  S
C1394      C1399   1.483       .  S
C1394      C1395   1.406   1_655  A
C1395      C1396   1.403       .  A
C1395      O1400   1.371       .  S
C1396      C1397   1.405       .  A
C1396      H1401   1.083       .  S
C1397      C1398   1.416   1_455  A
C1398      O1402   1.372       .  S
C1399      C1404   1.405   1_655  A
C1399      C1408   1.403       .  A
O1400      H1416   0.991       .  S
O1402      H1413   0.992   1_655  S
C1404      C1405   1.402   1_455  A
C1404      O1409   1.372       .  S
C1405      C1406   1.409       .  A
C1405      H1410   1.083   1_655  S
C1406      C1407   1.413       .  A
C1407      C1408   1.406       .  A
C1407      O1411   1.371       .  S
C1408      H1412   1.084       .  S
O1409      H1414   0.992       .  S
O1411      H1415   0.992       .  S
C1417      C1418   1.402       .  A
C1417      C1422   1.400       .  A
C1417      H1427   1.084       .  S
C1418      C1423   1.480       .  S
C1418      C1419   1.408       .  A
C1419      C1420   1.400       .  A
C1419      O1424   1.372       .  S
C1420      C1421   1.405       .  A
C1420      H1425   1.083   1_545  S
C1421      C1422   1.413       .  A
C1422      O1426   1.371       .  S
C1423      C1428   1.409       .  A
C1423      C1432   1.403       .  A
O1424      H1440   0.992   1_545  S
O1426      H1437   0.992       .  S
C1428      C1429   1.403       .  A
C1428      O1433   1.371       .  S
C1429      C1430   1.404       .  A
C1429      H1434   1.084       .  S
C1430      C1431   1.405       .  A
C1431      C1432   1.397       .  A
C1431      O1435   1.371       .  S
C1432      H1436   1.084       .  S
O1433      H1438   0.991       .  S
O1435      H1439   0.991       .  S
C1441      C1442   1.401       .  A
C1441      C1446   1.401       .  A
C1441      H1451   1.084       .  S
C1442      C1447   1.479       .  S
C1442      C1443   1.405       .  A
C1443      C1444   1.401       .  A
C1443      O1448   1.371       .  S
C1444      C1445   1.409       .  A
C1444      H1449   1.083       .  S
C1445      C1446   1.414       .  A
C1446      O1450   1.370   1_455  S
C1447      C1452   1.408       .  A
C1447      C1456   1.401       .  A
O1448      H1464   0.991       .  S
O1450      H1461   0.992       .  S
C1452      C1453   1.406       .  A
C1452      O1457   1.371       .  S
C1453      C1454   1.405       .  A
C1453      H1458   1.083       .  S
C1454      C1455   1.408       .  A
C1455      C1456   1.395       .  A
C1455      O1459   1.371       .  S
C1456      H1460   1.084       .  S
O1457      H1462   0.992       .  S
O1459      H1463   0.992       .  S
C1465      C1466   1.400   1_545  A
C1465      C1470   1.403       .  A
C1465      H1475   1.084   1_545  S
C1466      C1471   1.479       .  S
C1466      C1467   1.405   1_565  A
C1467      C1468   1.401       .  A
C1467      O1472   1.372       .  S
C1468      C1469   1.409       .  A
C1468      H1473   1.083       .  S
C1469      C1470   1.416       .  A
C1470      O1474   1.371       .  S
C1471      C1476   1.406       .  A
C1471      C1480   1.404       .  A
O1472      H1488   0.992   1_545  S
O1474      H1485   0.992       .  S
C1476      C1477   1.398       .  A
C1476      O1481   1.372       .  S
C1477      C1478   1.403       .  A
C1477      H1482   1.084       .  S
C1478      C1479   1.409       .  A
C1479      C1480   1.406       .  A
C1479      O1483   1.371       .  S
C1480      H1484   1.083       .  S
O1481      H1486   0.992       .  S
O1483      H1487   0.991       .  S
C1489      C1490   1.403       .  A
C1489      C1494   1.406       .  A
C1489      H1499   1.083       .  S
C1490      C1495   1.480       .  S
C1490      C1491   1.407       .  A
C1491      C1492   1.398       .  A
C1491      O1496   1.372       .  S
C1492      C1493   1.404       .  A
C1492      H1497   1.084       .  S
C1493      C1494   1.411       .  A
C1494      O1498   1.372       .  S
C1495      C1500   1.407       .  A
C1495      C1504   1.399       .  A
O1496      H1512   0.992       .  S
O1498      H1509   0.991       .  S
C1500      C1501   1.403       .  A
C1500      O1505   1.372       .  S
C1501      C1502   1.408       .  A
C1501      H1506   1.083       .  S
C1502      C1503   1.417       .  A
C1503      C1504   1.400       .  A
C1503      O1507   1.371       .  S
C1504      H1508   1.084       .  S
O1505      H1510   0.992       .  S
O1507      H1511   0.991       .  S
C1513      C1514   1.408       .  A
C1513      C1518   1.404       .  A
C1513      H1523   1.082       .  S
C1514      C1519   1.493       .  S
C1514      C1515   1.414       .  A
C1515      C1516   1.399       .  A
C1515      O1520   1.372       .  S
C1516      C1517   1.400       .  A
C1516      H1521   1.084       .  S
C1517      C1518   1.406       .  A
C1518      O1522   1.372       .  S
C1519      C1524   1.411       .  A
C1519      C1528   1.404       .  A
O1520      H1536   0.991       .  S
O1522      H1533   0.992       .  S
C1524      C1525   1.410       .  A
C1524      O1529   1.372       .  S
C1525      C1526   1.410       .  A
C1525      H1530   1.083       .  S
C1526      C1527   1.412       .  A
C1527      C1528   1.395       .  A
C1527      O1531   1.372       .  S
C1528      H1532   1.083       .  S
O1529      H1534   0.992       .  S
O1531      H1535   0.992       .  S
C1537      C1538   1.404       .  A
C1537      C1542   1.405       .  A
C1537      H1547   1.083       .  S
C1538      C1543   1.486       .  S
C1538      C1539   1.408       .  A
C1539      C1540   1.398       .  A
C1539      O1544   1.372       .  S
C1540      C1541   1.407       .  A
C1540      H1545   1.083       .  S
C1541      C1542   1.415       .  A
C1542      O1546   1.371       .  S
C1543      C1548   1.409       .  A
C1543      C1552   1.403       .  A
O1544      H1560   0.992       .  S
O1546      H1557   0.992       .  S
C1548      C1549   1.404       .  A
C1548      O1553   1.371       .  S
C1549      C1550   1.405       .  A
C1549      H1554   1.083       .  S
C1550      C1551   1.413       .  A
C1551      C1552   1.401       .  A
C1551      O1555   1.372       .  S
C1552      H1556   1.084       .  S
O1553      H1558   0.991       .  S
O1555      H1559   0.991       .  S
C1561      C1562   1.401       .  A
C1561      C1566   1.400       .  A
C1561      H1571   1.084       .  S
C1562      C1567   1.468       .  S
C1562      C1563   1.403       .  A
C1563      C1564   1.393       .  A
C1563      O1568   1.372       .  S
C1564      C1565   1.406       .  A
C1564      H1569   1.084       .  S
C1565      C1566   1.411       .  A
C1566      O1570   1.371       .  S
C1567      C1572   1.404       .  A
C1567      C1576   1.398       .  A
O1568      H1584   0.992       .  S
O1570      H1581   0.992       .  S
C1572      C1573   1.400       .  A
C1572      O1577   1.371       .  S
C1573      C1574   1.407       .  A
C1573      H1578   1.083       .  S
C1574      C1575   1.412       .  A
C1575      C1576   1.395       .  A
C1575      O1579   1.373       .  S
C1576      H1580   1.084       .  S
O1577      H1582   0.991       .  S
O1579      H1583   0.992       .  S
C1585      C1586   1.401       .  A
C1585      C1590   1.396       .  A
C1585      H1595   1.084       .  S
C1586      C1591   1.470       .  S
C1586      C1587   1.405       .  A
C1587      C1588   1.400       .  A
C1587      O1592   1.371       .  S
C1588      C1589   1.404       .  A
C1588      H1593   1.084       .  S
C1589      C1590   1.407       .  A
C1590      O1594   1.372       .  S
C1591      C1596   1.405       .  A
C1591      C1600   1.400       .  A
O1592      H1608   0.992   1_554  S
O1594      H1605   0.992       .  S
C1596      C1597   1.403       .  A
C1596      O1601   1.371   1_554  S
C1597      C1598   1.405       .  A
C1597      H1602   1.084   1_554  S
C1598      C1599   1.407       .  A
C1599      C1600   1.393       .  A
C1599      O1603   1.372       .  S
C1600      H1604   1.084       .  S
O1601      H1606   0.992       .  S
O1603      H1607   0.991       .  S
C1609      C1610   1.404       .  A
C1609      C1614   1.406       .  A
C1609      H1619   1.083       .  S
C1610      C1615   1.484       .  S
C1610      C1611   1.406       .  A
C1611      C1612   1.397       .  A
C1611      O1616   1.373       .  S
C1612      C1613   1.408       .  A
C1612      H1617   1.083       .  S
C1613      C1614   1.413       .  A
C1614      O1618   1.371       .  S
C1615      C1620   1.408       .  A
C1615      C1624   1.404       .  A
O1616      H1632   0.991       .  S
O1618      H1629   0.992       .  S
C1620      C1621   1.397       .  A
C1620      O1625   1.371       .  S
C1621      C1622   1.404       .  A
C1621      H1626   1.084       .  S
C1622      C1623   1.412       .  A
C1623      C1624   1.404       .  A
C1623      O1627   1.372       .  S
C1624      H1628   1.084       .  S
O1625      H1630   0.991       .  S
O1627      H1631   0.992       .  S
C1633      C1634   1.400       .  A
C1633      C1638   1.399       .  A
C1633      H1643   1.084       .  S
C1634      C1639   1.484       .  S
C1634      C1635   1.407       .  A
C1635      C1636   1.408       .  A
C1635      O1640   1.371       .  S
C1636      C1637   1.410       .  A
C1636      H1641   1.083       .  S
C1637      C1638   1.416       .  A
C1638      O1642   1.372       .  S
C1639      C1644   1.406       .  A
C1639      C1648   1.405       .  A
O1640      H1656   0.992       .  S
O1642      H1653   0.992       .  S
C1644      C1645   1.399       .  A
C1644      O1649   1.372       .  S
C1645      C1646   1.405       .  A
C1645      H1650   1.084       .  S
C1646      C1647   1.412       .  A
C1647      C1648   1.410       .  A
C1647      O1651   1.372       .  S
C1648      H1652   1.083       .  S
O1649      H1654   0.991       .  S
O1651      H1655   0.992       .  S
C1657      C1658   1.400       .  A
C1657      C1662   1.394       .  A
C1657      H1667   1.084       .  S
C1658      C1663   1.468       .  S
C1658      C1659   1.407       .  A
C1659      C1660   1.401       .  A
C1659      O1664   1.372       .  S
C1660      C1661   1.401       .  A
C1660      H1665   1.084       .  S
C1661      C1662   1.407       .  A
C1662      O1666   1.372       .  S
C1663      C1668   1.404       .  A
C1663      C1672   1.400       .  A
O1664      H1680   0.992       .  S
O1666      H1677   0.991       .  S
C1668      C1669   1.391       .  A
C1668      O1673   1.373       .  S
C1669      C1670   1.404       .  A
C1669      H1674   1.083       .  S
C1670      C1671   1.415       .  A
C1671      C1672   1.403       .  A
C1671      O1675   1.372       .  S
C1672      H1676   1.083       .  S
O1673      H1678   0.991       .  S
O1675      H1679   0.992       .  S
C1681      C1682   1.402       .  A
C1681      C1686   1.399       .  A
C1681      H1691   1.084       .  S
C1682      C1687   1.482       .  S
C1682      C1683   1.409       .  A
C1683      C1684   1.406       .  A
C1683      O1688   1.372       .  S
C1684      C1685   1.404       .  A
C1684      H1689   1.084       .  S
C1685      C1686   1.407       .  A
C1686      O1690   1.372       .  S
C1687      C1692   1.407       .  A
C1687      C1696   1.402       .  A
O1688      H1704   0.992       .  S
O1690      H1701   0.993       .  S
C1692      C1693   1.400       .  A
C1692      O1697   1.372       .  S
C1693      C1694   1.408       .  A
C1693      H1698   1.084       .  S
C1694      C1695   1.413       .  A
C1695      C1696   1.403       .  A
C1695      O1699   1.371       .  S
C1696      H1700   1.084       .  S
O1697      H1702   0.992       .  S
O1699      H1703   0.992       .  S
C1705      C1706   1.403       .  A
C1705      C1710   1.400       .  A
C1705      H1715   1.084       .  S
C1706      C1711   1.480       .  S
C1706      C1707   1.408       .  A
C1707      C1708   1.402       .  A
C1707      O1712   1.373       .  S
C1708      C1709   1.401       .  A
C1708      H1713   1.084       .  S
C1709      C1710   1.407       .  A
C1710      O1714   1.372       .  S
C1711      C1716   1.407       .  A
C1711      C1720   1.404       .  A
O1712      H1728   0.993       .  S
O1714      H1725   0.991       .  S
C1716      C1717   1.395       .  A
C1716      O1721   1.372       .  S
C1717      C1718   1.405       .  A
C1717      H1722   1.084       .  S
C1718      C1719   1.412       .  A
C1719      C1720   1.405       .  A
C1719      O1723   1.371       .  S
C1720      H1724   1.083       .  S
O1721      H1726   0.992       .  S
O1723      H1727   0.992       .  S
C1729      C1730   1.402       .  A
C1729      C1734   1.399       .  A
C1729      H1739   1.084       .  S
C1730      C1735   1.474       .  S
C1730      C1731   1.405       .  A
C1731      C1732   1.400       .  A
C1731      O1736   1.372       .  S
C1732      C1733   1.407       .  A
C1732      H1737   1.084       .  S
C1733      C1734   1.411       .  A
C1734      O1738   1.372       .  S
C1735      C1740   1.402       .  A
C1735      C1744   1.403       .  A
O1736      H1752   0.992       .  S
O1738      H1749   0.992       .  S
C1740      C1741   1.391       .  A
C1740      O1745   1.372       .  S
C1741      C1742   1.407       .  A
C1741      H1746   1.083       .  S
C1742      C1743   1.414       .  A
C1743      C1744   1.407       .  A
C1743      O1747   1.371       .  S
C1744      H1748   1.083       .  S
O1745      H1750   0.992       .  S
O1747      H1751   0.993       .  S
C1753      C1754   1.403       .  A
C1753      C1758   1.406       .  A
C1753      H1763   1.083       .  S
C1754      C1759   1.489       .  S
C1754      C1755   1.407       .  A
C1755      C1756   1.404       .  A
C1755      O1760   1.372       .  S
C1756      C1757   1.410       .  A
C1756      H1761   1.083       .  S
C1757      C1758   1.414       .  A
C1758      O1762   1.371       .  S
C1759      C1764   1.406       .  A
C1759      C1768   1.406       .  A
O1760      H1776   0.992       .  S
O1762      H1773   0.992       .  S
C1764      C1765   1.401       .  A
C1764      O1769   1.372       .  S
C1765      C1766   1.407       .  A
C1765      H1770   1.084       .  S
C1766      C1767   1.412       .  A
C1767      C1768   1.411       .  A
C1767      O1771   1.371       .  S
C1768      H1772   1.083       .  S
O1769      H1774   0.992       .  S
O1771      H1775   0.991       .  S
C1777      C1778   1.401       .  A
C1777      C1782   1.395       .  A
C1777      H1787   1.084       .  S
C1778      C1783   1.478       .  S
C1778      C1779   1.407       .  A
C1779      C1780   1.405       .  A
C1779      O1784   1.370       .  S
C1780      C1781   1.404       .  A
C1780      H1785   1.083       .  S
C1781      C1782   1.410       .  A
C1782      O1786   1.373       .  S
C1783      C1788   1.404       .  A
C1783      C1792   1.406       .  A
O1784      H1800   0.992   1_554  S
O1786      H1797   0.992       .  S
C1788      C1789   1.397       .  A
C1788      O1793   1.372   1_554  S
C1789      C1790   1.405       .  A
C1789      H1794   1.084       .  S
C1790      C1791   1.407       .  A
C1791      C1792   1.404       .  A
C1791      O1795   1.371       .  S
C1792      H1796   1.084       .  S
O1793      H1798   0.992   1_556  S
O1795      H1799   0.992       .  S
C1801      C1802   1.400       .  A
C1801      C1806   1.399       .  A
C1801      H1811   1.084       .  S
C1802      C1807   1.477       .  S
C1802      C1803   1.405       .  A
C1803      C1804   1.402       .  A
C1803      O1808   1.372       .  S
C1804      C1805   1.408       .  A
C1804      H1809   1.083       .  S
C1805      C1806   1.414       .  A
C1806      O1810   1.372       .  S
C1807      C1812   1.406       .  A
C1807      C1816   1.404       .  A
O1808      H1824   0.992       .  S
O1810      H1821   0.993       .  S
C1812      C1813   1.394       .  A
C1812      O1817   1.372       .  S
C1813      C1814   1.405       .  A
C1813      H1818   1.084       .  S
C1814      C1815   1.413       .  A
C1815      C1816   1.405       .  A
C1815      O1819   1.371       .  S
C1816      H1820   1.083       .  S
O1817      H1822   0.992       .  S
O1819      H1823   0.991       .  S
C1825      C1826   1.402       .  A
C1825      C1830   1.405       .  A
C1825      H1835   1.083       .  S
C1826      C1831   1.474       .  S
C1826      C1827   1.406       .  A
C1827      C1828   1.394       .  A
C1827      O1832   1.372       .  S
C1828      C1829   1.403       .  A
C1828      H1833   1.084       .  S
C1829      C1830   1.412       .  A
C1830      O1834   1.371       .  S
C1831      C1836   1.407       .  A
C1831      C1840   1.403       .  A
O1832      H1848   0.992       .  S
O1834      H1845   0.990       .  S
C1836      C1837   1.399       .  A
C1836      O1841   1.372       .  S
C1837      C1838   1.401       .  A
C1837      H1842   1.084       .  S
C1838      C1839   1.405       .  A
C1839      C1840   1.400       .  A
C1839      O1843   1.371       .  S
C1840      H1844   1.084       .  S
O1841      H1846   0.993       .  S
O1843      H1847   0.992       .  S
C1849      C1850   1.408       .  A
C1849      C1854   1.407       .  A
C1849      H1859   1.083       .  S
C1850      C1855   1.494       .  S
C1850      C1851   1.409       .  A
C1851      C1852   1.403       .  A
C1851      O1856   1.372   1_554  S
C1852      C1853   1.407       .  A
C1852      H1857   1.084       .  S
C1853      C1854   1.407       .  A
C1854      O1858   1.371       .  S
C1855      C1860   1.408       .  A
C1855      C1864   1.404       .  A
O1856      H1872   0.992       .  S
O1858      H1869   0.992       .  S
C1860      C1861   1.408       .  A
C1860      O1865   1.372       .  S
C1861      C1862   1.409       .  A
C1861      H1866   1.083       .  S
C1862      C1863   1.417       .  A
C1863      C1864   1.403       .  A
C1863      O1867   1.372       .  S
C1864      H1868   1.084       .  S
O1865      H1870   0.992       .  S
O1867      H1871   0.993       .  S
C1873      C1874   1.400       .  A
C1873      C1878   1.399       .  A
C1873      H1883   1.084       .  S
C1874      C1879   1.475       .  S
C1874      C1875   1.406       .  A
C1875      C1876   1.398       .  A
C1875      O1880   1.372       .  S
C1876      C1877   1.408       .  A
C1876      H1881   1.083       .  S
C1877      C1878   1.415       .  A
C1878      O1882   1.371       .  S
C1879      C1884   1.407       .  A
C1879      C1888   1.397       .  A
O1880      H1896   0.992       .  S
O1882      H1893   0.992       .  S
C1884      C1885   1.403       .  A
C1884      O1889   1.372       .  S
C1885      C1886   1.406       .  A
C1885      H1890   1.083       .  S
C1886      C1887   1.415       .  A
C1887      C1888   1.395       .  A
C1887      O1891   1.372       .  S
C1888      H1892   1.084       .  S
O1889      H1894   0.991       .  S
O1891      H1895   0.992       .  S
C1897      C1898   1.402       .  A
C1897      C1902   1.398       .  A
C1897      H1907   1.084       .  S
C1898      C1903   1.478       .  S
C1898      C1899   1.405       .  A
C1899      C1900   1.399       .  A
C1899      O1904   1.371       .  S
C1900      C1901   1.408       .  A
C1900      H1905   1.083       .  S
C1901      C1902   1.414       .  A
C1902      O1906   1.372       .  S
C1903      C1908   1.405       .  A
C1903      C1912   1.403       .  A
O1904      H1920   0.991       .  S
O1906      H1917   0.992       .  S
C1908      C1909   1.396       .  A
C1908      O1913   1.373       .  S
C1909      C1910   1.406       .  A
C1909      H1914   1.084       .  S
C1910      C1911   1.411       .  A
C1911      C1912   1.404       .  A
C1911      O1915   1.371       .  S
C1912      H1916   1.083       .  S
O1913      H1918   0.992       .  S
O1915      H1919   0.992       .  S
C1921      C1922   1.400       .  A
C1921      C1926   1.399       .  A
C1921      H1931   1.084       .  S
C1922      C1927   1.487       .  S
C1922      C1923   1.410       .  A
C1923      C1924   1.409       .  A
C1923      O1928   1.372       .  S
C1924      C1925   1.408       .  A
C1924      H1929   1.083       .  S
C1925      C1926   1.413       .  A
C1926      O1930   1.371       .  S
C1927      C1932   1.405       .  A
C1927      C1936   1.405       .  A
O1928      H1944   0.992       .  S
O1930      H1941   0.992       .  S
C1932      C1933   1.403       .  A
C1932      O1937   1.372       .  S
C1933      C1934   1.411       .  A
C1933      H1938   1.083       .  S
C1934      C1935   1.413       .  A
C1935      C1936   1.405       .  A
C1935      O1939   1.371       .  S
C1936      H1940   1.084       .  S
O1937      H1942   0.991       .  S
O1939      H1943   0.992       .  S
C1945      C1946   1.399       .  A
C1945      C1950   1.396       .  A
C1945      H1955   1.084       .  S
C1946      C1951   1.481       .  S
C1946      C1947   1.410       .  A
C1947      C1948   1.408       .  A
C1947      O1952   1.371       .  S
C1948      C1949   1.404       .  A
C1948      H1953   1.083       .  S
C1949      C1950   1.408       .  A
C1950      O1954   1.369       .  S
C1951      C1956   1.408       .  A
C1951      C1960   1.401       .  A
O1952      H1968   0.992       .  S
O1954      H1965   0.992       .  S
C1956      C1957   1.408       .  A
C1956      O1961   1.371       .  S
C1957      C1958   1.406       .  A
C1957      H1962   1.083       .  S
C1958      C1959   1.410       .  A
C1959      C1960   1.398       .  A
C1959      O1963   1.372       .  S
C1960      H1964   1.084       .  S
O1961      H1966   0.992       .  S
O1963      H1967   0.992       .  S
C1969      C1970   1.400       .  A
C1969      C1974   1.398       .  A
C1969      H1979   1.084       .  S
C1970      C1975   1.477       .  S
C1970      C1971   1.406       .  A
C1971      C1972   1.400       .  A
C1971      O1976   1.372       .  S
C1972      C1973   1.407       .  A
C1972      H1977   1.083       .  S
C1973      C1974   1.414       .  A
C1974      O1978   1.371       .  S
C1975      C1980   1.408       .  A
C1975      C1984   1.402       .  A
O1976      H1992   0.991       .  S
O1978      H1989   0.992       .  S
C1980      C1981   1.399       .  A
C1980      O1985   1.371       .  S
C1981      C1982   1.404       .  A
C1981      H1986   1.084       .  S
C1982      C1983   1.410       .  A
C1983      C1984   1.397       .  A
C1983      O1987   1.372       .  S
C1984      H1988   1.084       .  S
O1985      H1990   0.992       .  S
O1987      H1991   0.993       .  S
C1993      C1994   1.402       .  A
C1993      C1998   1.404       .  A
C1993      H2003   1.084       .  S
C1994      C1999   1.484       .  S
C1994      C1995   1.406       .  A
C1995      C1996   1.404       .  A
C1995      O2000   1.372       .  S
C1996      C1997   1.409       .  A
C1996      H2001   1.083       .  S
C1997      C1998   1.414       .  A
C1998      O2002   1.371       .  S
C1999      C2004   1.405       .  A
C1999      C2008   1.406       .  A
O2000      H2016   0.992       .  S
O2002      H2013   0.992       .  S
C2004      C2005   1.396       .  A
C2004      O2009   1.372       .  S
C2005      C2006   1.406       .  A
C2005      H2010   1.084       .  S
C2006      C2007   1.411       .  A
C2007      C2008   1.410       .  A
C2007      O2011   1.372       .  S
C2008      H2012   1.083       .  S
O2009      H2014   0.991       .  S
O2011      H2015   0.992       .  S
C2017      C2018   1.402       .  A
C2017      C2022   1.402       .  A
C2017      H2027   1.084       .  S
C2018      C2023   1.494       .  S
C2018      C2019   1.410       .  A
C2019      C2020   1.412       .  A
C2019      O2024   1.371       .  S
C2020      C2021   1.411       .  A
C2020      H2025   1.083       .  S
C2021      C2022   1.414       .  A
C2022      O2026   1.372       .  S
C2023      C2028   1.406       .  A
C2023      C2032   1.407       .  A
O2024      H2040   0.991       .  S
O2026      H2037   0.992       .  S
C2028      C2029   1.399       .  A
C2028      O2033   1.372       .  S
C2029      C2030   1.408       .  A
C2029      H2034   1.083       .  S
C2030      C2031   1.418       .  A
C2031      C2032   1.414       .  A
C2031      O2035   1.371   1_455  S
C2032      H2036   1.083       .  S
O2033      H2038   0.992       .  S
O2035      H2039   0.992       .  S
C2041      C2042   1.405       .  A
C2041      C2046   1.404       .  A
C2041      H2051   1.084       .  S
C2042      C2047   1.480       .  S
C2042      C2043   1.402       .  A
C2043      C2044   1.398       .  A
C2043      O2048   1.372       .  S
C2044      C2045   1.409       .  A
C2044      H2049   1.083       .  S
C2045      C2046   1.412       .  A
C2046      O2050   1.372       .  S
C2047      C2052   1.409       .  A
C2047      C2056   1.398       .  A
O2048      H2064   0.992       .  S
O2050      H2061   0.992       .  S
C2052      C2053   1.405       .  A
C2052      O2057   1.371       .  S
C2053      C2054   1.407       .  A
C2053      H2058   1.083       .  S
C2054      C2055   1.417       .  A
C2055      C2056   1.397       .  A
C2055      O2059   1.372       .  S
C2056      H2060   1.084       .  S
O2057      H2062   0.991       .  S
O2059      H2063   0.992       .  S
C2065      C2066   1.407       .  A
C2065      C2070   1.404       .  A
C2065      H2075   1.083       .  S
C2066      C2071   1.490       .  S
C2066      C2067   1.410       .  A
C2067      C2068   1.396       .  A
C2067      O2072   1.373       .  S
C2068      C2069   1.404       .  A
C2068      H2073   1.079       .  S
C2069      C2070   1.413       .  A
C2070      O2074   1.372       .  S
C2071      C2076   1.414       .  A
C2071      C2080   1.406       .  A
O2072      H2088   0.992       .  S
O2074      H2085   0.991       .  S
C2076      C2077   1.402       .  A
C2076      O2081   1.371       .  S
C2077      C2078   1.401       .  A
C2077      H2082   1.084       .  S
C2078      C2079   1.405       .  A
C2079      C2080   1.399       .  A
C2079      O2083   1.372       .  S
C2080      H2084   1.083       .  S
O2081      H2086   0.992       .  S
O2083      H2087   0.992       .  S
C2089      C2090   1.406       .  A
C2089      C2094   1.401       .  A
C2089      H2099   1.083       .  S
C2090      C2095   1.492       .  S
C2090      C2091   1.409       .  A
C2091      C2092   1.401       .  A
C2091      O2096   1.371       .  S
C2092      C2093   1.408       .  A
C2092      H2097   1.083       .  S
C2093      C2094   1.414       .  A
C2094      O2098   1.372       .  S
C2095      C2100   1.409       .  A
C2095      C2104   1.410       .  A
O2096      H2112   0.992       .  S
O2098      H2109   0.992       .  S
C2100      C2101   1.400       .  A
C2100      O2105   1.373       .  S
C2101      C2102   1.404       .  A
C2101      H2106   1.084       .  S
C2102      C2103   1.405       .  A
C2103      C2104   1.404       .  A
C2103      O2107   1.371       .  S
C2104      H2108   1.083       .  S
O2105      H2110   0.992       .  S
O2107      H2111   0.992       .  S
C2113      C2114   1.403       .  A
C2113      C2118   1.400       .  A
C2113      H2123   1.084       .  S
C2114      C2119   1.474       .  S
C2114      C2115   1.406       .  A
C2115      C2116   1.398       .  A
C2115      O2120   1.371       .  S
C2116      C2117   1.401       .  A
C2116      H2121   1.084       .  S
C2117      C2118   1.406       .  A
C2118      O2122   1.372       .  S
C2119      C2124   1.405       .  A
C2119      C2128   1.400       .  A
O2120      H2136   0.992       .  S
O2122      H2133   0.991       .  S
C2124      C2125   1.404       .  A
C2124      O2129   1.371       .  S
C2125      C2126   1.407       .  A
C2125      H2130   1.083       .  S
C2126      C2127   1.411       .  A
C2127      C2128   1.394       .  A
C2127      O2131   1.372       .  S
C2128      H2132   1.084       .  S
O2129      H2134   0.992       .  S
O2131      H2135   0.992       .  S
C2137      C2138   1.406       .  A
C2137      C2142   1.399       .  A
C2137      H2147   1.083       .  S
C2138      C2143   1.479       .  S
C2138      C2139   1.406       .  A
C2139      C2140   1.395       .  A
C2139      O2144   1.372       .  S
C2140      C2141   1.408       .  A
C2140      H2145   1.084       .  S
C2141      C2142   1.407       .  A
C2142      O2146   1.371       .  S
C2143      C2148   1.404       .  A
C2143      C2152   1.407       .  A
O2144      H2160   0.992       .  S
O2146      H2157   0.991       .  S
C2148      C2149   1.390       .  A
C2148      O2153   1.372       .  S
C2149      C2150   1.408       .  A
C2149      H2154   1.084       .  S
C2150      C2151   1.408       .  A
C2151      C2152   1.403       .  A
C2151      O2155   1.371       .  S
C2152      H2156   1.083       .  S
O2153      H2158   0.992       .  S
O2155      H2159   0.992       .  S
C2161      C2162   1.401       .  A
C2161      C2166   1.396       .  A
C2161      H2171   1.084       .  S
C2162      C2167   1.473       .  S
C2162      C2163   1.406       .  A
C2163      C2164   1.400       .  A
C2163      O2168   1.373       .  S
C2164      C2165   1.404       .  A
C2164      H2169   1.084       .  S
C2165      C2166   1.410       .  A
C2166      O2170   1.373       .  S
C2167      C2172   1.405       .  A
C2167      C2176   1.401       .  A
O2168      H2184   0.993       .  S
O2170      H2181   0.992       .  S
C2172      C2173   1.394       .  A
C2172      O2177   1.372       .  S
C2173      C2174   1.407       .  A
C2173      H2178   1.083       .  S
C2174      C2175   1.413       .  A
C2175      C2176   1.400       .  A
C2175      O2179   1.371       .  S
C2176      H2180   1.084       .  S
O2177      H2182   0.992       .  S
O2179      H2183   0.993       .  S
C2185      C2186   1.404       .  A
C2185      C2190   1.406       .  A
C2185      H2195   1.083       .  S
C2186      C2191   1.481       .  S
C2186      C2187   1.407       .  A
C2187      C2188   1.400       .  A
C2187      O2192   1.372       .  S
C2188      C2189   1.403       .  A
C2188      H2193   1.084       .  S
C2189      C2190   1.410       .  A
C2190      O2194   1.371       .  S
C2191      C2196   1.407       .  A
C2191      C2200   1.404       .  A
O2192      H2208   0.992       .  S
O2194      H2205   0.991       .  S
C2196      C2197   1.399       .  A
C2196      O2201   1.372       .  S
C2197      C2198   1.403       .  A
C2197      H2202   1.084       .  S
C2198      C2199   1.410       .  A
C2199      C2200   1.406       .  A
C2199      O2203   1.372       .  S
C2200      H2204   1.083       .  S
O2201      H2206   0.992       .  S
O2203      H2207   0.991       .  S
C2209      C2210   1.405       .  A
C2209      C2214   1.401       .  A
C2209      H2219   1.084       .  S
C2210      C2215   1.477       .  S
C2210      C2211   1.406       .  A
C2211      C2212   1.398       .  A
C2211      O2216   1.371       .  S
C2212      C2213   1.404       .  A
C2212      H2217   1.084       .  S
C2213      C2214   1.406       .  A
C2214      O2218   1.371       .  S
C2215      C2220   1.407       .  A
C2215      C2224   1.403       .  A
O2216      H2232   0.991       .  S
O2218      H2229   0.991       .  S
C2220      C2221   1.403       .  A
C2220      O2225   1.371       .  S
C2221      C2222   1.403       .  A
C2221      H2226   1.084       .  S
C2222      C2223   1.407       .  A
C2223      C2224   1.396       .  A
C2223      O2227   1.372       .  S
C2224      H2228   1.084       .  S
O2225      H2230   0.992       .  S
O2227      H2231   0.991       .  S
C2233      C2234   1.403       .  A
C2233      C2238   1.400       .  A
C2233      H2243   1.084       .  S
C2234      C2239   1.476       .  S
C2234      C2235   1.404       .  A
C2235      C2236   1.395       .  A
C2235      O2240   1.372       .  S
C2236      C2237   1.407       .  A
C2236      H2241   1.083       .  S
C2237      C2238   1.413       .  A
C2238      O2242   1.371       .  S
C2239      C2244   1.403       .  A
C2239      C2248   1.404       .  A
O2240      H2256   0.992       .  S
O2242      H2253   0.992       .  S
C2244      C2245   1.395       .  A
C2244      O2249   1.372       .  S
C2245      C2246   1.410       .  A
C2245      H2250   1.083       .  S
C2246      C2247   1.411       .  A
C2247      C2248   1.400       .  A
C2247      O2251   1.371       .  S
C2248      H2252   1.084       .  S
O2249      H2254   0.991       .  S
O2251      H2255   0.992       .  S
C2257      C2258   1.401       .  A
C2257      C2262   1.401       .  A
C2257      H2267   1.084       .  S
C2258      C2263   1.483       .  S
C2258      C2259   1.407       .  A
C2259      C2260   1.406       .  A
C2259      O2264   1.372       .  S
C2260      C2261   1.408       .  A
C2260      H2265   1.083       .  S
C2261      C2262   1.413       .  A
C2262      O2266   1.372       .  S
C2263      C2268   1.407       .  A
C2263      C2272   1.405       .  A
O2264      H2280   0.992       .  S
O2266      H2277   0.991       .  S
C2268      C2269   1.398       .  A
C2268      O2273   1.372       .  S
C2269      C2270   1.404       .  A
C2269      H2274   1.084       .  S
C2270      C2271   1.412       .  A
C2271      C2272   1.409       .  A
C2271      O2275   1.372       .  S
C2272      H2276   1.083       .  S
O2273      H2278   0.992       .  S
O2275      H2279   0.992       .  S
C2281      C2282   1.401       .  A
C2281      C2286   1.401       .  A
C2281      H2291   1.084       .  S
C2282      C2287   1.475       .  S
C2282      C2283   1.408       .  A
C2283      C2284   1.396       .  A
C2283      O2288   1.373       .  S
C2284      C2285   1.403       .  A
C2284      H2289   1.084       .  S
C2285      C2286   1.412       .  A
C2286      O2290   1.372       .  S
C2287      C2292   1.404       .  A
C2287      C2296   1.403       .  A
O2288      H2304   0.991       .  S
O2290      H2301   0.992       .  S
C2292      C2293   1.398       .  A
C2292      O2297   1.373       .  S
C2293      C2294   1.407       .  A
C2293      H2298   1.084       .  S
C2294      C2295   1.409       .  A
C2295      C2296   1.400       .  A
C2295      O2299   1.372       .  S
C2296      H2300   1.084       .  S
O2297      H2302   0.990       .  S
O2299      H2303   0.992       .  S
C2305      C2306   1.401       .  A
C2305      C2310   1.397       .  A
C2305      H2315   1.084       .  S
C2306      C2311   1.479       .  S
C2306      C2307   1.407       .  A
C2307      C2308   1.404       .  A
C2307      O2312   1.372       .  S
C2308      C2309   1.406       .  A
C2308      H2313   1.083       .  S
C2309      C2310   1.411       .  A
C2310      O2314   1.372       .  S
C2311      C2316   1.407       .  A
C2311      C2320   1.406       .  A
O2312      H2328   0.992       .  S
O2314      H2325   0.992       .  S
C2316      C2317   1.396       .  A
C2316      O2321   1.372       .  S
C2317      C2318   1.403       .  A
C2317      H2322   1.084       .  S
C2318      C2319   1.406       .  A
C2319      C2320   1.403       .  A
C2319      O2323   1.372       .  S
C2320      H2324   1.084       .  S
O2321      H2326   0.991       .  S
O2323      H2327   0.991       .  S
C2329      C2330   1.401       .  A
C2329      C2334   1.397       .  A
C2329      H2339   1.084       .  S
C2330      C2335   1.473       .  S
C2330      C2331   1.404       .  A
C2331      C2332   1.400       .  A
C2331      O2336   1.372       .  S
C2332      C2333   1.407       .  A
C2332      H2337   1.083       .  S
C2333      C2334   1.412       .  A
C2334      O2338   1.372       .  S
C2335      C2340   1.403       .  A
C2335      C2344   1.402       .  A
O2336      H2352   0.992       .  S
O2338      H2349   0.992       .  S
C2340      C2341   1.393       .  A
C2340      O2345   1.373       .  S
C2341      C2342   1.408       .  A
C2341      H2346   1.084       .  S
C2342      C2343   1.412       .  A
C2343      C2344   1.405       .  A
C2343      O2347   1.371       .  S
C2344      H2348   1.083       .  S
O2345      H2350   0.992       .  S
O2347      H2351   0.992       .  S
C2353      C2354   1.403       .  A
C2353      C2358   1.406       .  A
C2353      H2363   1.083       .  S
C2354      C2359   1.483       .  S
C2354      C2355   1.405       .  A
C2355      C2356   1.398       .  A
C2355      O2360   1.372       .  S
C2356      C2357   1.408       .  A
C2356      H2361   1.083       .  S
C2357      C2358   1.415       .  A
C2358      O2362   1.371       .  S
C2359      C2364   1.407       .  A
C2359      C2368   1.402       .  A
O2360      H2376   0.992       .  S
O2362      H2373   0.992       .  S
C2364      C2365   1.400       .  A
C2364      O2369   1.372       .  S
C2365      C2366   1.408       .  A
C2365      H2370   1.084       .  S
C2366      C2367   1.412       .  A
C2367      C2368   1.403       .  A
C2367      O2371   1.372       .  S
C2368      H2372   1.084       .  S
O2369      H2374   0.991       .  S
O2371      H2375   0.992       .  S
C2377      C2378   1.398       .  A
C2377      C2382   1.393       .  A
C2377      H2387   1.084       .  S
C2378      C2383   1.474       .  S
C2378      C2379   1.405       .  A
C2379      C2380   1.403       .  A
C2379      O2384   1.371       .  S
C2380      C2381   1.409       .  A
C2380      H2385   1.083       .  S
C2381      C2382   1.416       .  A
C2382      O2386   1.372       .  S
C2383      C2388   1.404       .  A
C2383      C2392   1.404       .  A
O2384      H2400   0.992       .  S
O2386      H2397   0.993       .  S
C2388      C2389   1.391       .  A
C2388      O2393   1.373       .  S
C2389      C2390   1.405       .  A
C2389      H2394   1.084       .  S
C2390      C2391   1.412       .  A
C2391      C2392   1.405       .  A
C2391      O2395   1.371       .  S
C2392      H2396   1.083       .  S
O2393      H2398   0.992       .  S
O2395      H2399   0.991       .  S
C2401      C2402   1.403       .  A
C2401      C2406   1.397       .  A
C2401      H2411   1.084       .  S
C2402      C2407   1.477       .  S
C2402      C2403   1.405       .  A
C2403      C2404   1.402       .  A
C2403      O2408   1.372       .  S
C2404      C2405   1.408       .  A
C2404      H2409   1.084       .  S
C2405      C2406   1.410       .  A
C2406      O2410   1.372       .  S
C2407      C2412   1.411       .  A
C2407      C2416   1.403       .  A
O2408      H2424   0.992       .  S
O2410      H2421   0.992       .  S
C2412      C2413   1.399       .  A
C2412      O2417   1.372       .  S
C2413      C2414   1.399       .  A
C2413      H2418   1.084       .  S
C2414      C2415   1.405       .  A
C2415      C2416   1.398       .  A
C2415      O2419   1.372       .  S
C2416      H2420   1.084       .  S
O2417      H2422   0.992       .  S
O2419      H2423   0.991       .  S
C2425      C2426   1.403       .  A
C2425      C2430   1.406       .  A
C2425      H2435   1.084       .  S
C2426      C2431   1.489   1_655  S
C2426      C2427   1.408       .  A
C2427      C2428   1.404       .  A
C2427      O2432   1.372       .  S
C2428      C2429   1.406       .  A
C2428      H2433   1.083       .  S
C2429      C2430   1.416       .  A
C2430      O2434   1.372       .  S
C2431      C2436   1.405       .  A
C2431      C2440   1.406       .  A
O2432      H2448   0.992       .  S
O2434      H2445   0.992       .  S
C2436      C2437   1.399       .  A
C2436      O2441   1.372       .  S
C2437      C2438   1.410       .  A
C2437      H2442   1.083       .  S
C2438      C2439   1.414       .  A
C2439      C2440   1.411       .  A
C2439      O2443   1.371       .  S
C2440      H2444   1.083       .  S
O2441      H2446   0.991   1_455  S
O2443      H2447   0.991       .  S
C2449      C2450   1.406       .  A
C2449      C2454   1.411       .  A
C2449      H2459   1.083       .  S
C2450      C2455   1.482       .  S
C2450      C2451   1.404       .  A
C2451      C2452   1.393       .  A
C2451      O2456   1.372       .  S
C2452      C2453   1.407       .  A
C2452      H2457   1.084       .  S
C2453      C2454   1.413       .  A
C2454      O2458   1.371       .  S
C2455      C2460   1.404       .  A
C2455      C2464   1.404       .  A
O2456      H2472   0.992       .  S
O2458      H2469   0.992       .  S
C2460      C2461   1.403       .  A
C2460      O2465   1.371       .  S
C2461      C2462   1.411       .  A
C2461      H2466   1.083       .  S
C2462      C2463   1.413       .  A
C2463      C2464   1.400       .  A
C2463      O2467   1.372       .  S
C2464      H2468   1.084       .  S
O2465      H2470   0.991       .  S
O2467      H2471   0.992       .  S
C2473      C2474   1.404       .  A
C2473      C2478   1.400       .  A
C2473      H2483   1.083       .  S
C2474      C2479   1.486       .  S
C2474      C2475   1.408       .  A
C2475      C2476   1.400       .  A
C2475      O2480   1.372       .  S
C2476      C2477   1.407       .  A
C2476      H2481   1.083       .  S
C2477      C2478   1.415       .  A
C2478      O2482   1.372       .  S
C2479      C2484   1.411       .  A
C2479      C2488   1.404       .  A
O2480      H2496   0.990       .  S
O2482      H2493   0.992       .  S
C2484      C2485   1.407       .  A
C2484      O2489   1.373       .  S
C2485      C2486   1.404       .  A
C2485      H2490   1.084       .  S
C2486      C2487   1.404       .  A
C2487      C2488   1.395       .  A
C2487      O2491   1.372       .  S
C2488      H2492   1.084       .  S
O2489      H2494   0.993       .  S
O2491      H2495   0.991       .  S
C2497      C2498   1.401       .  A
C2497      C2502   1.402       .  A
C2497      H2507   1.084       .  S
C2498      C2503   1.488       .  S
C2498      C2499   1.407       .  A
C2499      C2500   1.408       .  A
C2499      O2504   1.371       .  S
C2500      C2501   1.411       .  A
C2500      H2505   1.083       .  S
C2501      C2502   1.418       .  A
C2502      O2506   1.372       .  S
C2503      C2508   1.405       .  A
C2503      C2512   1.404       .  A
O2504      H2520   0.991       .  S
O2506      H2517   0.992       .  S
C2508      C2509   1.401       .  A
C2508      O2513   1.372       .  S
C2509      C2510   1.409       .  A
C2509      H2514   1.083       .  S
C2510      C2511   1.417       .  A
C2511      C2512   1.409       .  A
C2511      O2515   1.371       .  S
C2512      H2516   1.083       .  S
O2513      H2518   0.992       .  S
O2515      H2519   0.993       .  S
C2521      C2522   1.403       .  A
C2521      C2526   1.402       .  A
C2521      H2531   1.084       .  S
C2522      C2527   1.480       .  S
C2522      C2523   1.404       .  A
C2523      C2524   1.399       .  A
C2523      O2528   1.371       .  S
C2524      C2525   1.408       .  A
C2524      H2529   1.083       .  S
C2525      C2526   1.415       .  A
C2526      O2530   1.372       .  S
C2527      C2532   1.407       .  A
C2527      C2536   1.403       .  A
O2528      H2544   0.992       .  S
O2530      H2541   0.991       .  S
C2532      C2533   1.405       .  A
C2532      O2537   1.371       .  S
C2533      C2534   1.405       .  A
C2533      H2538   1.084       .  S
C2534      C2535   1.407       .  A
C2535      C2536   1.398       .  A
C2535      O2539   1.372       .  S
C2536      H2540   1.084       .  S
O2537      H2542   0.992       .  S
O2539      H2543   0.992       .  S
C2545      C2546   1.405       .  A
C2545      C2550   1.399       .  A
C2545      H2555   1.082       .  S
C2546      C2551   1.490       .  S
C2546      C2547   1.413       .  A
C2547      C2548   1.400       .  A
C2547      O2552   1.371       .  S
C2548      C2549   1.402       .  A
C2548      H2553   1.084       .  S
C2549      C2550   1.410       .  A
C2550      O2554   1.372       .  S
C2551      C2556   1.413       .  A
C2551      C2560   1.405       .  A
O2552      H2568   0.992       .  S
O2554      H2565   0.992       .  S
C2556      C2557   1.407       .  A
C2556      O2561   1.373       .  S
C2557      C2558   1.403       .  A
C2557      H2562   1.084       .  S
C2558      C2559   1.408       .  A
C2559      C2560   1.394       .  A
C2559      O2563   1.373       .  S
C2560      H2564   1.083       .  S
O2561      H2566   0.993       .  S
O2563      H2567   0.992       .  S
C2569      C2570   1.404       .  A
C2569      C2574   1.402       .  A
C2569      H2579   1.083   1_545  S
C2570      C2575   1.492   1_545  S
C2570      C2571   1.410       .  A
C2571      C2572   1.405       .  A
C2571      O2576   1.372       .  S
C2572      C2573   1.407       .  A
C2572      H2577   1.084       .  S
C2573      C2574   1.413       .  A
C2574      O2578   1.371       .  S
C2575      C2580   1.409       .  A
C2575      C2584   1.404       .  A
O2576      H2592   0.990       .  S
O2578      H2589   0.993       .  S
C2580      C2581   1.405       .  A
C2580      O2585   1.372       .  S
C2581      C2582   1.408       .  A
C2581      H2586   1.083       .  S
C2582      C2583   1.416       .  A
C2583      C2584   1.404       .  A
C2583      O2587   1.371       .  S
C2584      H2588   1.084       .  S
O2585      H2590   0.991       .  S
O2587      H2591   0.992       .  S
C2593      C2594   1.405       .  A
C2593      C2598   1.402       .  A
C2593      H2603   1.084       .  S
C2594      C2599   1.488       .  S
C2594      C2595   1.411       .  A
C2595      C2596   1.404       .  A
C2595      O2600   1.371       .  S
C2596      C2597   1.403       .  A
C2596      H2601   1.084       .  S
C2597      C2598   1.408       .  A
C2598      O2602   1.372       .  S
C2599      C2604   1.411       .  A
C2599      C2608   1.406       .  A
O2600      H2616   0.991       .  S
O2602      H2613   0.992       .  S
C2604      C2605   1.404       .  A
C2604      O2609   1.371       .  S
C2605      C2606   1.404       .  A
C2605      H2610   1.084       .  S
C2606      C2607   1.405       .  A
C2607      C2608   1.400       .  A
C2607      O2611   1.372       .  S
C2608      H2612   1.084       .  S
O2609      H2614   0.991       .  S
O2611      H2615   0.992       .  S
C2617      C2618   1.400       .  A
C2617      C2622   1.394       .  A
C2617      H2627   1.084       .  S
C2618      C2623   1.477       .  S
C2618      C2619   1.406       .  A
C2619      C2620   1.406       .  A
C2619      O2624   1.371       .  S
C2620      C2621   1.409       .  A
C2620      H2625   1.083       .  S
C2621      C2622   1.411       .  A
C2622      O2626   1.372       .  S
C2623      C2628   1.408       .  A
C2623      C2632   1.403       .  A
O2624      H2640   0.990       .  S
O2626      H2637   0.992       .  S
C2628      C2629   1.399       .  A
C2628      O2633   1.372       .  S
C2629      C2630   1.402       .  A
C2629      H2634   1.084       .  S
C2630      C2631   1.406       .  A
C2631      C2632   1.401       .  A
C2631      O2635   1.372       .  S
C2632      H2636   1.084       .  S
O2633      H2638   0.991       .  S
O2635      H2639   0.992       .  S
C2641      C2642   1.407       .  A
C2641      C2646   1.405       .  A
C2641      H2651   1.083       .  S
C2642      C2647   1.487       .  S
C2642      C2643   1.408       .  A
C2643      C2644   1.400       .  A
C2643      O2648   1.371       .  S
C2644      C2645   1.404       .  A
C2644      H2649   1.084       .  S
C2645      C2646   1.407       .  A
C2646      O2650   1.371       .  S
C2647      C2652   1.406       .  A
C2647      C2656   1.403       .  A
O2648      H2664   0.993       .  S
O2650      H2661   0.991       .  S
C2652      C2653   1.405       .  A
C2652      O2657   1.372       .  S
C2653      C2654   1.410       .  A
C2653      H2658   1.083       .  S
C2654      C2655   1.415       .  A
C2655      C2656   1.401       .  A
C2655      O2659   1.372       .  S
C2656      H2660   1.084       .  S
O2657      H2662   0.991       .  S
O2659      H2663   0.992       .  S
C2665      C2666   1.406       .  A
C2665      C2670   1.411       .  A
C2665      H2675   1.083       .  S
C2666      C2671   1.490       .  S
C2666      C2667   1.408       .  A
C2667      C2668   1.399       .  A
C2667      O2672   1.372       .  S
C2668      C2669   1.407       .  A
C2668      H2673   1.084       .  S
C2669      C2670   1.413       .  A
C2670      O2674   1.371       .  S
C2671      C2676   1.410       .  A
C2671      C2680   1.400       .  A
O2672      H2688   0.992       .  S
O2674      H2685   0.992       .  S
C2676      C2677   1.412       .  A
C2676      O2681   1.371       .  S
C2677      C2678   1.409       .  A
C2677      H2682   1.083       .  S
C2678      C2679   1.417       .  A
C2679      C2680   1.398       .  A
C2679      O2683   1.372       .  S
C2680      H2684   1.084       .  S
O2681      H2686   0.992       .  S
O2683      H2687   0.992       .  S
C2689      C2690   1.405       .  A
C2689      C2694   1.399       .  A
C2689      H2699   1.084       .  S
C2690      C2695   1.480       .  S
C2690      C2691   1.409       .  A
C2691      C2692   1.397       .  A
C2691      O2696   1.372       .  S
C2692      C2693   1.401       .  A
C2692      H2697   1.084       .  S
C2693      C2694   1.404       .  A
C2694      O2698   1.372       .  S
C2695      C2700   1.407       .  A
C2695      C2704   1.402       .  A
O2696      H2712   0.991       .  S
O2698      H2709   0.991       .  S
C2700      C2701   1.401       .  A
C2700      O2705   1.372       .  S
C2701      C2702   1.408       .  A
C2701      H2706   1.083       .  S
C2702      C2703   1.413       .  A
C2703      C2704   1.395       .  A
C2703      O2707   1.372       .  S
C2704      H2708   1.084       .  S
O2705      H2710   0.992       .  S
O2707      H2711   0.992       .  S
C2713      C2714   1.399       .  A
C2713      C2718   1.400       .  A
C2713      H2723   1.084       .  S
C2714      C2719   1.473       .  S
C2714      C2715   1.407       .  A
C2715      C2716   1.396       .  A
C2715      O2720   1.372       .  S
C2716      C2717   1.404       .  A
C2716      H2721   1.084       .  S
C2717      C2718   1.413       .  A
C2718      O2722   1.372       .  S
C2719      C2724   1.406       .  A
C2719      C2728   1.400       .  A
O2720      H2736   0.991       .  S
O2722      H2733   0.993       .  S
C2724      C2725   1.399       .  A
C2724      O2729   1.371       .  S
C2725      C2726   1.404       .  A
C2725      H2730   1.084       .  S
C2726      C2727   1.409       .  A
C2727      C2728   1.397       .  A
C2727      O2731   1.373       .  S
C2728      H2732   1.084       .  S
O2729      H2734   0.992       .  S
O2731      H2735   0.991       .  S
C2737      C2738   1.401       .  A
C2737      C2742   1.398       .  A
C2737      H2747   1.084       .  S
C2738      C2743   1.482       .  S
C2738      C2739   1.407       .  A
C2739      C2740   1.407       .  A
C2739      O2744   1.371   1_556  S
C2740      C2741   1.407       .  A
C2740      H2745   1.084       .  S
C2741      C2742   1.412       .  A
C2742      O2746   1.372       .  S
C2743      C2748   1.408       .  A
C2743      C2752   1.401       .  A
O2744      H2760   0.991       .  S
O2746      H2757   0.992       .  S
C2748      C2749   1.404       .  A
C2748      O2753   1.372       .  S
C2749      C2750   1.408       .  A
C2749      H2754   1.084       .  S
C2750      C2751   1.415       .  A
C2751      C2752   1.400       .  A
C2751      O2755   1.371       .  S
C2752      H2756   1.084       .  S
O2753      H2758   0.992       .  S
O2755      H2759   0.991       .  S
C2761      C2762   1.399       .  A
C2761      C2766   1.400       .  A
C2761      H2771   1.084       .  S
C2762      C2767   1.473       .  S
C2762      C2763   1.405       .  A
C2763      C2764   1.397       .  A
C2763      O2768   1.372       .  S
C2764      C2765   1.406       .  A
C2764      H2769   1.084       .  S
C2765      C2766   1.415       .  A
C2766      O2770   1.371       .  S
C2767      C2772   1.407       .  A
C2767      C2776   1.401       .  A
O2768      H2784   0.992       .  S
O2770      H2781   0.991       .  S
C2772      C2773   1.401       .  A
C2772      O2777   1.371   1_556  S
C2773      C2774   1.402       .  A
C2773      H2778   1.084       .  S
C2774      C2775   1.407       .  A
C2775      C2776   1.396       .  A
C2775      O2779   1.373       .  S
C2776      H2780   1.084       .  S
O2777      H2782   0.992       .  S
O2779      H2783   0.992       .  S
C2785      C2786   1.402       .  A
C2785      C2790   1.401       .  A
C2785      H2795   1.084       .  S
C2786      C2791   1.481       .  S
C2786      C2787   1.406       .  A
C2787      C2788   1.403       .  A
C2787      O2792   1.372       .  S
C2788      C2789   1.408       .  A
C2788      H2793   1.084       .  S
C2789      C2790   1.412       .  A
C2790      O2794   1.371       .  S
C2791      C2796   1.405       .  A
C2791      C2800   1.402       .  A
O2792      H2808   0.992       .  S
O2794      H2805   0.992       .  S
C2796      C2797   1.400       .  A
C2796      O2801   1.372       .  S
C2797      C2798   1.409       .  A
C2797      H2802   1.083       .  S
C2798      C2799   1.415       .  A
C2799      C2800   1.404       .  A
C2799      O2803   1.371       .  S
C2800      H2804   1.084       .  S
O2801      H2806   0.992       .  S
O2803      H2807   0.992       .  S
C2809      C2810   1.398       .  A
C2809      C2814   1.401       .  A
C2809      H2819   1.084       .  S
C2810      C2815   1.478       .  S
C2810      C2811   1.406       .  A
C2811      C2812   1.401       .  A
C2811      O2816   1.371       .  S
C2812      C2813   1.407       .  A
C2812      H2817   1.083       .  S
C2813      C2814   1.417       .  A
C2814      O2818   1.372       .  S
C2815      C2820   1.406       .  A
C2815      C2824   1.398       .  A
O2816      H2832   0.992       .  S
O2818      H2829   0.992       .  S
C2820      C2821   1.403       .  A
C2820      O2825   1.372       .  S
C2821      C2822   1.408       .  A
C2821      H2826   1.083       .  S
C2822      C2823   1.418       .  A
C2823      C2824   1.400       .  A
C2823      O2827   1.371       .  S
C2824      H2828   1.084       .  S
O2825      H2830   0.992       .  S
O2827      H2831   0.992       .  S
C2833      C2834   1.401       .  A
C2833      C2838   1.398       .  A
C2833      H2843   1.084       .  S
C2834      C2839   1.484   1_655  S
C2834      C2835   1.408       .  A
C2835      C2836   1.405       .  A
C2835      O2840   1.372       .  S
C2836      C2837   1.406       .  A
C2836      H2841   1.083       .  S
C2837      C2838   1.415       .  A
C2838      O2842   1.372       .  S
C2839      C2844   1.409       .  A
C2839      C2848   1.402       .  A
O2840      H2856   0.992       .  S
O2842      H2853   0.992       .  S
C2844      C2845   1.402       .  A
C2844      O2849   1.372   1_455  S
C2845      C2846   1.406       .  A
C2845      H2850   1.083       .  S
C2846      C2847   1.415       .  A
C2847      C2848   1.401       .  A
C2847      O2851   1.372       .  S
C2848      H2852   1.084       .  S
O2849      H2854   0.992       .  S
O2851      H2855   0.992       .  S
C2857      C2858   1.400       .  A
C2857      C2862   1.400       .  A
C2857      H2867   1.084       .  S
C2858      C2863   1.480       .  S
C2858      C2859   1.407       .  A
C2859      C2860   1.400       .  A
C2859      O2864   1.371       .  S
C2860      C2861   1.407       .  A
C2860      H2865   1.083       .  S
C2861      C2862   1.417       .  A
C2862      O2866   1.372       .  S
C2863      C2868   1.408       .  A
C2863      C2872   1.403       .  A
O2864      H2880   0.991       .  S
O2866      H2877   0.992       .  S
C2868      C2869   1.403       .  A
C2868      O2873   1.372       .  S
C2869      C2870   1.404       .  A
C2869      H2874   1.084       .  S
C2870      C2871   1.409       .  A
C2871      C2872   1.398       .  A
C2871      O2875   1.372       .  S
C2872      H2876   1.084       .  S
O2873      H2878   0.991       .  S
O2875      H2879   0.992       .  S
C2881      C2882   1.403       .  A
C2881      C2886   1.404       .  A
C2881      H2891   1.084       .  S
C2882      C2887   1.481       .  S
C2882      C2883   1.405       .  A
C2883      C2884   1.399       .  A
C2883      O2888   1.372       .  S
C2884      C2885   1.409       .  A
C2884      H2889   1.083       .  S
C2885      C2886   1.414       .  A
C2886      O2890   1.371       .  S
C2887      C2892   1.407       .  A
C2887      C2896   1.401       .  A
O2888      H2904   0.992       .  S
O2890      H2901   0.992       .  S
C2892      C2893   1.401       .  A
C2892      O2897   1.372       .  S
C2893      C2894   1.406       .  A
C2893      H2898   1.083       .  S
C2894      C2895   1.417       .  A
C2895      C2896   1.402       .  A
C2895      O2899   1.372       .  S
C2896      H2900   1.084       .  S
O2897      H2902   0.991       .  S
O2899      H2903   0.992       .  S
C2905      C2906   1.403       .  A
C2905      C2910   1.401       .  A
C2905      H2915   1.083       .  S
C2906      C2911   1.480       .  S
C2906      C2907   1.405       .  A
C2907      C2908   1.396       .  A
C2907      O2912   1.372       .  S
C2908      C2909   1.408       .  A
C2908      H2913   1.083       .  S
C2909      C2910   1.413       .  A
C2910      O2914   1.371       .  S
C2911      C2916   1.405       .  A
C2911      C2920   1.403       .  A
O2912      H2928   0.991       .  S
O2914      H2925   0.992       .  S
C2916      C2917   1.399       .  A
C2916      O2921   1.372       .  S
C2917      C2918   1.407       .  A
C2917      H2922   1.083       .  S
C2918      C2919   1.411       .  A
C2919      C2920   1.400       .  A
C2919      O2923   1.372       .  S
C2920      H2924   1.084       .  S
O2921      H2926   0.992       .  S
O2923      H2927   0.992       .  S
C2929      C2930   1.401       .  A
C2929      C2934   1.403       .  A
C2929      H2939   1.084       .  S
C2930      C2935   1.480       .  S
C2930      C2931   1.406       .  A
C2931      C2932   1.401       .  A
C2931      O2936   1.371       .  S
C2932      C2933   1.407       .  A
C2932      H2937   1.083       .  S
C2933      C2934   1.416       .  A
C2934      O2938   1.371       .  S
C2935      C2940   1.408       .  A
C2935      C2944   1.398       .  A
O2936      H2952   0.991       .  S
O2938      H2949   0.992       .  S
C2940      C2941   1.409       .  A
C2940      O2945   1.371       .  S
C2941      C2942   1.407       .  A
C2941      H2946   1.083       .  S
C2942      C2943   1.412       .  A
C2943      C2944   1.395       .  A
C2943      O2947   1.371       .  S
C2944      H2948   1.084       .  S
O2945      H2950   0.991       .  S
O2947      H2951   0.992       .  S
C2953      C2954   1.405       .  A
C2953      C2958   1.401       .  A
C2953      H2963   1.084       .  S
C2954      C2959   1.483       .  S
C2954      C2955   1.410       .  A
C2955      C2956   1.400       .  A
C2955      O2960   1.373       .  S
C2956      C2957   1.401       .  A
C2956      H2961   1.084       .  S
C2957      C2958   1.404       .  A
C2958      O2962   1.372       .  S
C2959      C2964   1.405       .  A
C2959      C2968   1.404       .  A
O2960      H2976   0.992       .  S
O2962      H2973   0.992       .  S
C2964      C2965   1.402       .  A
C2964      O2969   1.373       .  S
C2965      C2966   1.409       .  A
C2965      H2970   1.083       .  S
C2966      C2967   1.413       .  A
C2967      C2968   1.400       .  A
C2967      O2971   1.372       .  S
C2968      H2972   1.084       .  S
O2969      H2974   0.992       .  S
O2971      H2975   0.992       .  S
C2977      C2978   1.404       .  A
C2977      C2982   1.402       .  A
C2977      H2987   1.084       .  S
C2978      C2983   1.486       .  S
C2978      C2979   1.407       .  A
C2979      C2980   1.403       .  A
C2979      O2984   1.372       .  S
C2980      C2981   1.408       .  A
C2980      H2985   1.083       .  S
C2981      C2982   1.413       .  A
C2982      O2986   1.372       .  S
C2983      C2988   1.409       .  A
C2983      C2992   1.400       .  A
O2984      H3000   0.992       .  S
O2986      H2997   0.992       .  S
C2988      C2989   1.405       .  A
C2988      O2993   1.371       .  S
C2989      C2990   1.409       .  A
C2989      H2994   1.083       .  S
C2990      C2991   1.416       .  A
C2991      C2992   1.399       .  A
C2991      O2995   1.372       .  S
C2992      H2996   1.084       .  S
O2993      H2998   0.992       .  S
O2995      H2999   0.992       .  S
C3001      C3002   1.400       .  A
C3001      C3006   1.402       .  A
C3001      H3011   1.084       .  S
C3002      C3007   1.480       .  S
C3002      C3003   1.406       .  A
C3003      C3004   1.401       .  A
C3003      O3008   1.372       .  S
C3004      C3005   1.408       .  A
C3004      H3009   1.083       .  S
C3005      C3006   1.416       .  A
C3006      O3010   1.372       .  S
C3007      C3012   1.405       .  A
C3007      C3016   1.401       .  A
O3008      H3024   0.992       .  S
O3010      H3021   0.992       .  S
C3012      C3013   1.400       .  A
C3012      O3017   1.372       .  S
C3013      C3014   1.409       .  A
C3013      H3018   1.083       .  S
C3014      C3015   1.414       .  A
C3015      C3016   1.402       .  A
C3015      O3019   1.371       .  S
C3016      H3020   1.084       .  S
O3017      H3022   0.992       .  S
O3019      H3023   0.992       .  S
C3025      C3026   1.400       .  A
C3025      C3030   1.396       .  A
C3025      H3035   1.084       .  S
C3026      C3031   1.485       .  S
C3026      C3027   1.409       .  A
C3027      C3028   1.405       .  A
C3027      O3032   1.372       .  S
C3028      C3029   1.407       .  A
C3028      H3033   1.083       .  S
C3029      C3030   1.417       .  A
C3030      O3034   1.372       .  S
C3031      C3036   1.407       .  A
C3031      C3040   1.404       .  A
O3032      H3048   0.992       .  S
O3034      H3045   0.992       .  S
C3036      C3037   1.402       .  A
C3036      O3041   1.371       .  S
C3037      C3038   1.409       .  A
C3037      H3042   1.083       .  S
C3038      C3039   1.412       .  A
C3039      C3040   1.399       .  A
C3039      O3043   1.372       .  S
C3040      H3044   1.084       .  S
O3041      H3046   0.991       .  S
O3043      H3047   0.992       .  S
C3049      C3050   1.404       .  A
C3049      C3054   1.400       .  A
C3049      H3059   1.083       .  S
C3050      C3055   1.491       .  S
C3050      C3051   1.414       .  A
C3051      C3052   1.404       .  A
C3051      O3056   1.371       .  S
C3052      C3053   1.402       .  A
C3052      H3057   1.084       .  S
C3053      C3054   1.410       .  A
C3054      O3058   1.371       .  S
C3055      C3060   1.415       .  A
C3055      C3064   1.402       .  A
O3056      H3072   0.992       .  S
O3058      H3069   0.991       .  S
C3060      C3061   1.411       .  A
C3060      O3065   1.372       .  S
C3061      C3062   1.404       .  A
C3061      H3066   1.083       .  S
C3062      C3063   1.410       .  A
C3063      C3064   1.393       .  A
C3063      O3067   1.373       .  S
C3064      H3068   1.083       .  S
O3065      H3070   0.992       .  S
O3067      H3071   0.991       .  S
C3073      C3074   1.404       .  A
C3073      C3078   1.398       .  A
C3073      H3083   1.084       .  S
C3074      C3079   1.479       .  S
C3074      C3075   1.410       .  A
C3075      C3076   1.400       .  A
C3075      O3080   1.372       .  S
C3076      C3077   1.400       .  A
C3076      H3081   1.084       .  S
C3077      C3078   1.404       .  A
C3078      O3082   1.372       .  S
C3079      C3084   1.408       .  A
C3079      C3088   1.403       .  A
O3080      H3096   0.993       .  S
O3082      H3093   0.992       .  S
C3084      C3085   1.393       .  A
C3084      O3089   1.372       .  S
C3085      C3086   1.404       .  A
C3085      H3090   1.083       .  S
C3086      C3087   1.413       .  A
C3087      C3088   1.402       .  A
C3087      O3091   1.371       .  S
C3088      H3092   1.083       .  S
O3089      H3094   0.992       .  S
O3091      H3095   0.992       .  S
C3097      C3098   1.405       .  A
C3097      C3102   1.407       .  A
C3097      H3107   1.083       .  S
C3098      C3103   1.481       .  S
C3098      C3099   1.406       .  A
C3099      C3100   1.397       .  A
C3099      O3104   1.372       .  S
C3100      C3101   1.404       .  A
C3100      H3105   1.084       .  S
C3101      C3102   1.409       .  A
C3102      O3106   1.372       .  S
C3103      C3108   1.407       .  A
C3103      C3112   1.399       .  A
O3104      H3120   0.992       .  S
O3106      H3117   0.991       .  S
C3108      C3109   1.403       .  A
C3108      O3113   1.371       .  S
C3109      C3110   1.408       .  A
C3109      H3114   1.083       .  S
C3110      C3111   1.418       .  A
C3111      C3112   1.402       .  A
C3111      O3115   1.371       .  S
C3112      H3116   1.084       .  S
O3113      H3118   0.992       .  S
O3115      H3119   0.991       .  S
C3121      C3122   1.403       .  A
C3121      C3126   1.400       .  A
C3121      H3131   1.084       .  S
C3122      C3127   1.477       .  S
C3122      C3123   1.406       .  A
C3123      C3124   1.399       .  A
C3123      O3128   1.372       .  S
C3124      C3125   1.404       .  A
C3124      H3129   1.084       .  S
C3125      C3126   1.410       .  A
C3126      O3130   1.372       .  S
C3127      C3132   1.407       .  A
C3127      C3136   1.399       .  A
O3128      H3144   0.991       .  S
O3130      H3141   0.992       .  S
C3132      C3133   1.399       .  A
C3132      O3137   1.372       .  S
C3133      C3134   1.407       .  A
C3133      H3138   1.083       .  S
C3134      C3135   1.416       .  A
C3135      C3136   1.399       .  A
C3135      O3139   1.372       .  S
C3136      H3140   1.084       .  S
O3137      H3142   0.992       .  S
O3139      H3143   0.992       .  S
C3145      C3146   1.406       .  A
C3145      C3150   1.403       .  A
C3145      H3155   1.083       .  S
C3146      C3151   1.484       .  S
C3146      C3147   1.408       .  A
C3147      C3148   1.399       .  A
C3147      O3152   1.372       .  S
C3148      C3149   1.402       .  A
C3148      H3153   1.082       .  S
C3149      C3150   1.406       .  A
C3150      O3154   1.371       .  S
C3151      C3156   1.408       .  A
C3151      C3160   1.402       .  A
O3152      H3168   0.992       .  S
O3154      H3165   0.992       .  S
C3156      C3157   1.407       .  A
C3156      O3161   1.371       .  S
C3157      C3158   1.407       .  A
C3157      H3162   1.083       .  S
C3158      C3159   1.412       .  A
C3159      C3160   1.396       .  A
C3159      O3163   1.372       .  S
C3160      H3164   1.084       .  S
O3161      H3166   0.991       .  S
O3163      H3167   0.992       .  S
C3169      C3170   1.407       .  A
C3169      C3174   1.405       .  A
C3169      H3179   1.083       .  S
C3170      C3175   1.488       .  S
C3170      C3171   1.411       .  A
C3171      C3172   1.398       .  A
C3171      O3176   1.371       .  S
C3172      C3173   1.400       .  A
C3172      H3177   1.084       .  S
C3173      C3174   1.407       .  A
C3174      O3178   1.372       .  S
C3175      C3180   1.411       .  A
C3175      C3184   1.404       .  A
O3176      H3192   0.991       .  S
O3178      H3189   0.992       .  S
C3180      C3181   1.409       .  A
C3180      O3185   1.372       .  S
C3181      C3182   1.405       .  A
C3181      H3186   1.084       .  S
C3182      C3183   1.406       .  A
C3183      C3184   1.395       .  A
C3183      O3187   1.373       .  S
C3184      H3188   1.084       .  S
O3185      H3190   0.992       .  S
O3187      H3191   0.992       .  S
C3193      C3194   1.403       .  A
C3193      C3198   1.401       .  A
C3193      H3203   1.083       .  S
C3194      C3199   1.481       .  S
C3194      C3195   1.410       .  A
C3195      C3196   1.400       .  A
C3195      O3200   1.372       .  S
C3196      C3197   1.400       .  A
C3196      H3201   1.084       .  S
C3197      C3198   1.409       .  A
C3198      O3202   1.372       .  S
C3199      C3204   1.408       .  A
C3199      C3208   1.400       .  A
O3200      H3216   0.992       .  S
O3202      H3213   0.992       .  S
C3204      C3205   1.402       .  A
C3204      O3209   1.372       .  S
C3205      C3206   1.408       .  A
C3205      H3210   1.083       .  S
C3206      C3207   1.416       .  A
C3207      C3208   1.399       .  A
C3207      O3211   1.371       .  S
C3208      H3212   1.084       .  S
O3209      H3214   0.992       .  S
O3211      H3215   0.992       .  S
C3217      C3218   1.401       .  A
C3217      C3222   1.405       .  A
C3217      H3227   1.084       .  S
C3218      C3223   1.483       .  S
C3218      C3219   1.406       .  A
C3219      C3220   1.402       .  A
C3219      O3224   1.372       .  S
C3220      C3221   1.407       .  A
C3220      H3225   1.083       .  S
C3221      C3222   1.415       .  A
C3222      O3226   1.371       .  S
C3223      C3228   1.404       .  A
C3223      C3232   1.404       .  A
O3224      H3240   0.992       .  S
O3226      H3237   0.992       .  S
C3228      C3229   1.398       .  A
C3228      O3233   1.372       .  S
C3229      C3230   1.408       .  A
C3229      H3234   1.084       .  S
C3230      C3231   1.414       .  A
C3231      C3232   1.409       .  A
C3231      O3235   1.371       .  S
C3232      H3236   1.083       .  S
O3233      H3238   0.992       .  S
O3235      H3239   0.991       .  S
C3241      C3242   1.397       .  A
C3241      C3246   1.396       .  A
C3241      H3251   1.084       .  S
C3242      C3247   1.477       .  S
C3242      C3243   1.406       .  A
C3243      C3244   1.404       .  A
C3243      O3248   1.371       .  S
C3244      C3245   1.408       .  A
C3244      H3249   1.083       .  S
C3245      C3246   1.417       .  A
C3246      O3250   1.372       .  S
C3247      C3252   1.407       .  A
C3247      C3256   1.398       .  A
O3248      H3264   0.992       .  S
O3250      H3261   0.992       .  S
C3252      C3253   1.404       .  A
C3252      O3257   1.371       .  S
C3253      C3254   1.408       .  A
C3253      H3258   1.083       .  S
C3254      C3255   1.416       .  A
C3255      C3256   1.397       .  A
C3255      O3259   1.372       .  S
C3256      H3260   1.084       .  S
O3257      H3262   0.991       .  S
O3259      H3263   0.992       .  S
C3265      C3266   1.398       .  A
C3265      C3270   1.400       .  A
C3265      H3275   1.084       .  S
C3266      C3271   1.471       .  S
C3266      C3267   1.405       .  A
C3267      C3268   1.397       .  A
C3267      O3272   1.372       .  S
C3268      C3269   1.406       .  A
C3268      H3273   1.083       .  S
C3269      C3270   1.415       .  A
C3270      O3274   1.372       .  S
C3271      C3276   1.406       .  A
C3271      C3280   1.401       .  A
O3272      H3288   0.991       .  S
O3274      H3285   0.993       .  S
C3276      C3277   1.400       .  A
C3276      O3281   1.371       .  S
C3277      C3278   1.402       .  A
C3277      H3282   1.084       .  S
C3278      C3279   1.406       .  A
C3279      C3280   1.398       .  A
C3279      O3283   1.372       .  S
C3280      H3284   1.084       .  S
O3281      H3286   0.992       .  S
O3283      H3287   0.992       .  S
C3289      C3290   1.403       .  A
C3289      C3294   1.398       .  A
C3289      H3299   1.084       .  S
C3290      C3295   1.478       .  S
C3290      C3291   1.409       .  A
C3291      C3292   1.400       .  A
C3291      O3296   1.374       .  S
C3292      C3293   1.401       .  A
C3292      H3297   1.084       .  S
C3293      C3294   1.406       .  A
C3294      O3298   1.373       .  S
C3295      C3300   1.408       .  A
C3295      C3304   1.403       .  A
O3296      H3312   0.993       .  S
O3298      H3309   0.992       .  S
C3300      C3301   1.393       .  A
C3300      O3305   1.372       .  S
C3301      C3302   1.404       .  A
C3301      H3306   1.083       .  S
C3302      C3303   1.413       .  A
C3303      C3304   1.402       .  A
C3303      O3307   1.372       .  S
C3304      H3308   1.084       .  S
O3305      H3310   0.992       .  S
O3307      H3311   0.993       .  S
C3313      C3314   1.407       .  A
C3313      C3318   1.404       .  A
C3313      H3323   1.083       .  S
C3314      C3319   1.488       .  S
C3314      C3315   1.412       .  A
C3315      C3316   1.399       .  A
C3315      O3320   1.372       .  S
C3316      C3317   1.400       .  A
C3316      H3321   1.084       .  S
C3317      C3318   1.407       .  A
C3318      O3322   1.372       .  S
C3319      C3324   1.409       .  A
C3319      C3328   1.405       .  A
O3320      H3336   0.992       .  S
O3322      H3333   0.991       .  S
C3324      C3325   1.400       .  A
C3324      O3329   1.372       .  S
C3325      C3326   1.408       .  A
C3325      H3330   1.083       .  S
C3326      C3327   1.413       .  A
C3327      C3328   1.402       .  A
C3327      O3331   1.371       .  S
C3328      H3332   1.084       .  S
O3329      H3334   0.992       .  S
O3331      H3335   0.992       .  S
C3337      C3338   1.400       .  A
C3337      C3342   1.394       .  A
C3337      H3347   1.084       .  S
C3338      C3343   1.472       .  S
C3338      C3339   1.407       .  A
C3339      C3340   1.403       .  A
C3339      O3344   1.372       .  S
C3340      C3341   1.404       .  A
C3340      H3345   1.084       .  S
C3341      C3342   1.406       .  A
C3342      O3346   1.373       .  S
C3343      C3348   1.406       .  A
C3343      C3352   1.398       .  A
O3344      H3360   0.992       .  S
O3346      H3357   0.992       .  S
C3348      C3349   1.398       .  A
C3348      O3353   1.372       .  S
C3349      C3350   1.406       .  A
C3349      H3354   1.083       .  S
C3350      C3351   1.416       .  A
C3351      C3352   1.399       .  A
C3351      O3355   1.372       .  S
C3352      H3356   1.084       .  S
O3353      H3358   0.992       .  S
O3355      H3359   0.993       .  S
C3361      C3362   1.400       .  A
C3361      C3366   1.401       .  A
C3361      H3371   1.084       .  S
C3362      C3367   1.472   1_565  S
C3362      C3363   1.404       .  A
C3363      C3364   1.397       .  A
C3363      O3368   1.372   1_565  S
C3364      C3365   1.406       .  A
C3364      H3369   1.083       .  S
C3365      C3366   1.414       .  A
C3366      O3370   1.372       .  S
C3367      C3372   1.403       .  A
C3367      C3376   1.399       .  A
O3368      H3384   0.992       .  S
O3370      H3381   0.992       .  S
C3372      C3373   1.398       .  A
C3372      O3377   1.371       .  S
C3373      C3374   1.408       .  A
C3373      H3378   1.083       .  S
C3374      C3375   1.415       .  A
C3375      C3376   1.399       .  A
C3375      O3379   1.372       .  S
C3376      H3380   1.084       .  S
O3377      H3382   0.991       .  S
O3379      H3383   0.992       .  S
