geometry optimzed in LAMMPS
_audit_creation_date              2020-12-01 
_audit_creation_method            'lammps2cif' 
_symmetry_space_group_name_H-M    'P1' 
_symmetry_Int_Tables_number       1 
_symmetry_cell_setting            triclinic 
loop_ 
_symmetry_equiv_pos_as_xyz 
  x,y,z 
_cell_length_a                    36.46861363 
_cell_length_b                    36.46614193113794 
_cell_length_c                    30.471837712826375 
_cell_angle_alpha                 89.98224744709798 
_cell_angle_beta                  89.4562487039709 
_cell_angle_gamma                 89.87400421065034 
loop_ 
_atom_site_label 
_atom_site_type_symbol 
_atom_site_fract_x 
_atom_site_fract_y 
_atom_site_fract_z 
_atom_site_charge 
O1          O  0.45239982  0.78662264  0.16884211    -0.84700
O2          O  0.49261171  0.84437276  0.14459784    -0.81800
C3          C  0.52000440  0.86330054  0.13443918     0.98700
O4          O  0.54659471  0.84891540  0.11336284    -0.81800
O5          O  0.57964961  0.78994357  0.15968322    -0.84400
C6          C  0.58464362  0.75795296  0.17442273     1.03300
O7          O  0.56348831  0.73219884  0.16334854    -0.77200
O8          O  0.49654027  0.75267314  0.19665585    -0.77400
C9          C  0.46878719  0.77292680  0.20187792     1.03200
O10         O  0.45083112  0.76466497  0.07490433    -0.84700
O11         O  0.48892381  0.82546209  0.05143718    -0.81800
C12         C  0.51515155  0.81712942  0.02539979     0.98800
O13         O  0.54296709  0.80071648  0.03935837    -0.81800
O14         O  0.57797956  0.74596288  0.08119766    -0.84400
C15         C  0.56098225  0.71716215  0.06956019     1.03200
O16         O  0.52891440  0.71094824  0.08367758    -0.77200
O17         O  0.46021758  0.72180674  0.12295088    -0.77400
C18         C  0.44285389  0.73380306  0.09028906     1.03200
Cr19       Cr  0.47428024  0.80320301  0.11035583     1.93700
Cr20       Cr  0.55832010  0.79530356  0.10021394     1.93200
Cr21       Cr  0.51236901  0.73284208  0.13977536     1.39100
O22         O  0.51502719  0.77751238  0.11692215    -1.22500
O23         O  0.77316995  0.47245012  0.34049482    -0.84700
O24         O  0.83258219  0.51041251  0.36227519    -0.81800
C25         C  0.85445813  0.53464583  0.37438258     0.98700
O26         O  0.84204477  0.56296331  0.39390728    -0.81800
O27         O  0.78722428  0.59872899  0.34202682    -0.84400
C28         C  0.75620647  0.60488323  0.32526378     1.03300
O29         O  0.72830802  0.58698140  0.33770967    -0.77200
O30         O  0.74286755  0.51790701  0.31005844    -0.77400
C31         C  0.76095277  0.48864453  0.30655253     1.03200
O32         O  0.75017046  0.47595464  0.43413789    -0.84700
O33         O  0.81290320  0.51067437  0.45549875    -0.81800
C34         C  0.80469956  0.53732403  0.48077034     0.98800
O35         O  0.79040693  0.56595249  0.46549967    -0.81800
O36         O  0.74039902  0.60462833  0.41870984    -0.84400
C37         C  0.71039716  0.58993553  0.43109370     1.03200
O38         O  0.70249327  0.55775192  0.41955376    -0.77200
O39         O  0.70795651  0.48732436  0.38616786    -0.77400
C40         C  0.71848184  0.47044274  0.41998475     1.03200
Cr41       Cr  0.79047953  0.49543255  0.39751263     1.93700
Cr42       Cr  0.78875494  0.57981735  0.40336498     1.93200
Cr43       Cr  0.72371085  0.53740748  0.36527919     1.39100
O44         O  0.76792748  0.53752631  0.38863256    -1.22500
O45         O  0.51048028  0.23185074  0.70447570    -0.84700
O46         O  0.57812442  0.24791007  0.67339997    -0.81800
C47         C  0.59604484  0.21883053  0.68094875     0.98700
O48         O  0.58907128  0.18955919  0.66059859    -0.81800
O49         O  0.55024254  0.13981734  0.60572150    -0.84400
C50         C  0.52331744  0.12670939  0.62742826     1.03300
O51         O  0.50060459  0.14815845  0.64437841    -0.77200
O52         O  0.46309649  0.20580261  0.67325274    -0.77400
C53         C  0.48099636  0.21430071  0.70737519     1.03200
O54         O  0.47639478  0.27226734  0.63447017    -0.84700
O55         O  0.54563118  0.28064689  0.59760506    -0.81800
C56         C  0.57690238  0.27352145  0.58165469     0.98800
O57         O  0.59191495  0.24261074  0.58947627    -0.81800
O58         O  0.55027963  0.19718310  0.54127671    -0.84400
C59         C  0.52152840  0.18304043  0.52666593     1.03200
O60         O  0.49677161  0.17177750  0.55302610    -0.77200
O61         O  0.46400416  0.23328072  0.58252596    -0.77400
C62         C  0.45859741  0.26365201  0.60055838     1.03200
Cr63       Cr  0.52747864  0.25526426  0.65038908     1.93700
Cr64       Cr  0.56745309  0.19339225  0.60128517     1.93200
Cr65       Cr  0.48404553  0.19132394  0.61382107     1.39100
O66         O  0.52634203  0.21317887  0.62187233    -1.22500
O67         O  0.73806589  0.46977163  0.80695388    -0.84700
O68         O  0.71892222  0.40388416  0.84263371    -0.81800
C69         C  0.74641398  0.38393750  0.83400680     0.98700
O70         O  0.77688255  0.39041356  0.85159045    -0.81800
O71         O  0.83064368  0.42913687  0.89918654    -0.84400
C72         C  0.84486000  0.45527775  0.87720382     1.03300
O73         O  0.82517486  0.48117627  0.86401431    -0.77200
O74         O  0.76592502  0.51770314  0.83451985    -0.77400
C75         C  0.75532306  0.49929358  0.80134291     1.03200
O76         O  0.70037784  0.50767162  0.87616942    -0.84700
O77         O  0.69067001  0.44077813  0.91768230    -0.81800
C78         C  0.69727012  0.41006092  0.93506013     0.98800
O79         O  0.72759375  0.39372472  0.92721733    -0.81800
O80         O  0.77820838  0.43370942  0.96965228    -0.84400
C81         C  0.79290248  0.46281804  0.98241618     1.03200
O82         O  0.80155033  0.48792956  0.95530419    -0.77200
O83         O  0.73960486  0.52031672  0.92708826    -0.77400
C84         C  0.70883906  0.52530653  0.91014833     1.03200
Cr85       Cr  0.71531317  0.45567484  0.86284716     1.93700
Cr86       Cr  0.77718671  0.41493319  0.90983259     1.93200
Cr87       Cr  0.78126350  0.49869149  0.89475972     1.39100
O88         O  0.75837545  0.45633682  0.88903437    -1.22500
O89         O  0.49707680  0.21186326  0.17386801    -0.84700
O90         O  0.46518770  0.14879839  0.14890168    -0.81800
C91         C  0.44209263  0.12643936  0.13475733     0.98700
O92         O  0.41550246  0.13780280  0.11190000    -0.81800
O93         O  0.37372649  0.18819438  0.16184777    -0.84400
C94         C  0.36497821  0.21819817  0.17965630     1.03300
O95         O  0.38016075  0.24790561  0.16786139    -0.77200
O96         O  0.44840625  0.24007282  0.20073994    -0.77400
C97         C  0.47834699  0.22362469  0.20641321     1.03200
O98         O  0.49823349  0.23402987  0.08118316    -0.84700
O99         O  0.46957908  0.16967597  0.05619284    -0.81800
C100        C  0.44443527  0.17750956  0.02911694     0.98800
O101        O  0.41420604  0.18995838  0.04242758    -0.81800
O102        O  0.36837091  0.23545273  0.08540432    -0.84400
C103        C  0.38259447  0.26525271  0.07199991     1.03200
O104        O  0.41251012  0.27602424  0.08771786    -0.77200
O105        O  0.48042094  0.27678941  0.12622825    -0.77400
C106        C  0.50044777  0.26647195  0.09449632     1.03200
Cr107      Cr  0.47931609  0.19263955  0.11557103     1.93700
Cr108      Cr  0.39589849  0.18932025  0.10233835     1.93200
Cr109      Cr  0.43071598  0.25701541  0.14386348     1.39100
O110        O  0.43544774  0.21265482  0.12102316    -1.22500
O111        O  0.20841134  0.51358995  0.33521949    -0.84700
O112        O  0.14462849  0.48120733  0.36031992    -0.81800
C113        C  0.12212385  0.45913290  0.37708419     0.98700
O114        O  0.13358746  0.43396163  0.40243156    -0.81800
O115        O  0.18684299  0.38873893  0.36044158    -0.84400
C116        C  0.21777243  0.37953609  0.34506184     1.03300
O117        O  0.24622626  0.39772935  0.35414672    -0.77200
O118        O  0.23589630  0.46294552  0.31336261    -0.77400
C119        C  0.22113591  0.49323583  0.30481661     1.03200
O120        O  0.22667323  0.51979399  0.42824746    -0.84700
O121        O  0.16075260  0.49236868  0.45199246    -0.81800
C122        C  0.16782085  0.46965825  0.48223074     0.98800
O123        O  0.18324445  0.43963323  0.47373556    -0.81800
O124        O  0.23197966  0.39211884  0.43761223    -0.84400
C125        C  0.26252942  0.40683890  0.44703554     1.03200
O126        O  0.27172121  0.43668866  0.42949866    -0.77200
O127        O  0.26978127  0.50143674  0.38343855    -0.77400
C128        C  0.25916260  0.52166832  0.41461854     1.03200
Cr129      Cr  0.18676916  0.49862563  0.39375467     1.93700
Cr130      Cr  0.18527784  0.41642190  0.41641719     1.93200
Cr131      Cr  0.25260008  0.45007930  0.37175148     1.39100
O132        O  0.20780665  0.45497682  0.39348712    -1.22500
O133        O  0.22337685  0.49502350  0.81630872    -0.84700
O134        O  0.22367473  0.56939475  0.82159837    -0.81800
C135        C  0.20787452  0.59907356  0.83155988     0.98700
O136        O  0.18883588  0.60181390  0.86644147    -0.81800
O137        O  0.12765641  0.55523326  0.88291078    -0.84400
C138        C  0.11065845  0.52590053  0.89199927     1.03300
O139        O  0.12747539  0.50065007  0.91094623    -0.77200
O140        O  0.16537241  0.48486707  0.83350481    -0.77400
C141        C  0.19046073  0.48898580  0.80488191     1.03200
O142        O  0.26293324  0.49236422  0.90040183    -0.84700
O143        O  0.26300907  0.56670709  0.90202530    -0.81800
C144        C  0.25223781  0.58174418  0.93717348     0.98800
O145        O  0.21882893  0.58111910  0.94846933    -0.81800
O146        O  0.16087005  0.53771130  0.96785343    -0.84400
C147        C  0.17690255  0.50982150  0.98399362     1.03200
O148        O  0.18908498  0.48415218  0.95971647    -0.77200
O149        O  0.22134487  0.45294727  0.88412964    -0.77400
C150        C  0.25235099  0.45961773  0.89943820     1.03200
Cr151      Cr  0.24009363  0.53042839  0.86219846     1.93700
Cr152      Cr  0.17531862  0.56609960  0.91414978     1.93200
Cr153      Cr  0.17733427  0.48373881  0.89653474     1.39100
O154        O  0.19781928  0.52758391  0.89075004    -1.22500
O155        O  0.46051780  0.75395975  0.69862918    -0.84700
O156        O  0.39426755  0.73559941  0.66523721    -0.81800
C157        C  0.37349329  0.76212522  0.67572611     0.98700
O158        O  0.37839975  0.79340081  0.65854023    -0.81800
O159        O  0.41559267  0.84943543  0.60914356    -0.84400
C160        C  0.44118829  0.86377665  0.63123268     1.03300
O161        O  0.46654252  0.84420327  0.64577154    -0.77200
O162        O  0.50637848  0.78585258  0.67139571    -0.77400
C163        C  0.48908644  0.77257435  0.70434483     1.03200
O164        O  0.49782401  0.72073326  0.62560745    -0.84700
O165        O  0.43001290  0.71115302  0.58672159    -0.81800
C166        C  0.39834128  0.71741101  0.57211255     0.98800
O167        O  0.38161468  0.74679492  0.58243735    -0.81800
O168        O  0.42086226  0.79834966  0.53860607    -0.84400
C169        C  0.44948461  0.81429740  0.52543125     1.03200
O170        O  0.47379836  0.82426767  0.55264287    -0.77200
O171        O  0.50942425  0.76365305  0.57785134    -0.77400
C172        C  0.51550035  0.73228906  0.59262990     1.03200
Cr173      Cr  0.44569151  0.73367120  0.64215462     1.93700
Cr174      Cr  0.40238050  0.79596953  0.59919109     1.93200
Cr175      Cr  0.48597457  0.80261820  0.61247220     1.39100
O176        O  0.44463146  0.77778023  0.61820368    -1.22500
C177        C  0.24757893  0.65907771  0.74140719    -0.13700
C178        C  0.25499083  0.69112727  0.76515933     0.16700
C179        C  0.23996295  0.69508785  0.80764426     0.03000
C180        C  0.22036762  0.66602439  0.82690494    -0.12200
C181        C  0.21619274  0.63236887  0.80488577    -0.03300
C182        C  0.22839008  0.62979475  0.76076669     0.02200
C183        C  0.28432792  0.71592996  0.74862997     0.09000
N184        N  0.24706321  0.72719970  0.83300596     0.65400
H185        H  0.21154340  0.66866992  0.86083435     0.18300
N186        N  0.22322664  0.59692927  0.73599923     0.75900
H187        H  0.25893967  0.65578708  0.70862543     0.09800
C188        C  0.32096242  0.70884376  0.76020584     0.03500
C189        C  0.34942090  0.72767385  0.73924710    -0.05200
C190        C  0.34262734  0.75362669  0.70629371    -0.23600
C191        C  0.30580213  0.76321030  0.69737621     0.12800
C192        C  0.27694533  0.74393756  0.71821940    -0.12700
N193        N  0.32973163  0.68004302  0.79020023     0.64400
H194        H  0.37766350  0.71959963  0.74636506     0.12300
N195        N  0.29740527  0.79051185  0.66534962     0.61100
H196        H  0.24869264  0.74986675  0.70933902     0.08400
O197        O  0.25057665  0.57767551  0.72490339    -0.40400
O198        O  0.19229653  0.59025245  0.71963664    -0.39600
O199        O  0.22240308  0.75129046  0.83722344    -0.39600
O200        O  0.27462634  0.72807982  0.85769560    -0.37300
O201        O  0.28627939  0.78103451  0.62797245    -0.38200
O202        O  0.29475137  0.82363325  0.67692702    -0.34300
O203        O  0.33044153  0.64726276  0.77695429    -0.35700
O204        O  0.34278338  0.68777679  0.82725466    -0.40000
C205        C  0.33309776  0.59271447  0.43498889    -0.13700
C206        C  0.32767706  0.59919209  0.47998619     0.16700
C207        C  0.30154529  0.57840450  0.50341667     0.03000
C208        C  0.28032591  0.55270407  0.48141564    -0.12200
C209        C  0.28436770  0.54735126  0.43607821    -0.03300
C210        C  0.31156844  0.56700962  0.41280033     0.02200
C211        C  0.34651317  0.63013700  0.50127273     0.09000
N212        N  0.29610042  0.58333773  0.54956391     0.65400
H213        H  0.26038423  0.53685381  0.49995547     0.18300
N214        N  0.31571742  0.56326432  0.36632689     0.75900
H215        H  0.35277006  0.60902485  0.41661134     0.09800
C216        C  0.38489354  0.63137709  0.50486040     0.03500
C217        C  0.40136005  0.66071084  0.52668140    -0.05200
C218        C  0.38007562  0.68907392  0.54526367    -0.23600
C219        C  0.34157580  0.68825590  0.54013107     0.12800
C220        C  0.32531490  0.65900425  0.51816174    -0.12700
N221        N  0.40729773  0.60223912  0.48828720     0.64400
H222        H  0.43094623  0.66076976  0.52998517     0.12300
N223        N  0.31830764  0.71574073  0.55892309     0.61100
H224        H  0.29573405  0.65858477  0.51473227     0.08400
O225        O  0.34461980  0.54926229  0.35051558    -0.40400
O226        O  0.29338453  0.57908854  0.34118700    -0.39600
O227        O  0.26795810  0.60006009  0.56341704    -0.39600
O228        O  0.31524785  0.56512463  0.57611498    -0.37300
O229        O  0.31009109  0.74370166  0.53664059    -0.38200
O230        O  0.30040067  0.70860667  0.59350671    -0.34300
O231        O  0.42641824  0.60712556  0.45406759    -0.35700
O232        O  0.41234563  0.57397751  0.51137140    -0.40000
C233        C  0.14113764  0.49526023  0.69588536    -0.13700
C234        C  0.17011868  0.48821820  0.66682645     0.16700
C235        C  0.20534741  0.48089757  0.68291102     0.03000
C236        C  0.21101048  0.47994847  0.72804935    -0.12200
C237        C  0.18214847  0.48722427  0.75767389    -0.03300
C238        C  0.14693543  0.49559734  0.74117089     0.02200
C239        C  0.16276531  0.48511414  0.61985843     0.09000
N240        N  0.23565752  0.47488964  0.65364812     0.65400
H241        H  0.23834358  0.47411375  0.73989105     0.18300
N242        N  0.11750023  0.50690293  0.76942526     0.75900
H243        H  0.11406142  0.50112719  0.68324364     0.09800
C244        C  0.15619866  0.45049694  0.60162625     0.03500
C245        C  0.15428494  0.44679182  0.55635016    -0.05200
C246        C  0.15907497  0.47721838  0.52859710    -0.23600
C247        C  0.16224873  0.51254589  0.54713154     0.12800
C248        C  0.16459757  0.51615611  0.59282749    -0.12700
N249        N  0.15359046  0.41857566  0.62870889     0.64400
H250        H  0.15112779  0.41951029  0.54272763     0.12300
N251        N  0.16498368  0.54452652  0.52016903     0.61100
H252        H  0.16899101  0.54298517  0.60716836     0.08400
O253        O  0.08738166  0.48996641  0.76841242    -0.40400
O254        O  0.11872972  0.53814082  0.78715246    -0.39600
O255        O  0.25195188  0.50202121  0.63678784    -0.39600
O256        O  0.24987024  0.44340368  0.65063639    -0.37300
O257        O  0.19406936  0.56318999  0.52001813    -0.38200
O258        O  0.13637913  0.55776331  0.50332873    -0.34300
O259        O  0.12250289  0.40722804  0.64102459    -0.35700
O260        O  0.18151808  0.39874491  0.63454768    -0.40000
C261        C  0.18187154  0.47899362  0.10234026    -0.13700
C262        C  0.19502233  0.51113444  0.12192512     0.16700
C263        C  0.20234786  0.54220061  0.09619557     0.03000
C264        C  0.19538562  0.54119028  0.05137747    -0.12200
C265        C  0.18240875  0.50908425  0.03148015    -0.03300
C266        C  0.17588092  0.47763428  0.05708806     0.02200
C267        C  0.20305777  0.51106073  0.16889660     0.09000
N268        N  0.21851240  0.57422287  0.11481328     0.65400
H269        H  0.20121369  0.56533377  0.03181020     0.18300
N270        N  0.16229027  0.44469542  0.03784866     0.75900
H271        H  0.17664532  0.45487391  0.12222080     0.09800
C272        C  0.17715508  0.52339273  0.20005736     0.03500
C273        C  0.18464670  0.51989237  0.24476276    -0.05200
C274        C  0.21754839  0.50381291  0.25859553    -0.23600
C275        C  0.24410003  0.49301309  0.22707238     0.12800
C276        C  0.23662672  0.49676460  0.18252961    -0.12700
N277        N  0.14240085  0.53746336  0.18672435     0.64400
H278        H  0.16381656  0.52774987  0.26860844     0.12300
N279        N  0.27854021  0.47774754  0.23980026     0.61100
H280        H  0.25672651  0.48765211  0.15842080     0.08400
O281        O  0.18427040  0.41922542  0.02774866    -0.40400
O282        O  0.12820473  0.43889821  0.03711708    -0.39600
O283        O  0.25291931  0.57782323  0.11393563    -0.39600
O284        O  0.19858211  0.60138772  0.12457603    -0.37300
O285        O  0.28343591  0.44351296  0.23788019    -0.38200
O286        O  0.30577421  0.49859765  0.24457507    -0.34300
O287        O  0.11449008  0.51710879  0.18844698    -0.35700
O288        O  0.13847188  0.57144703  0.18055677    -0.40000
C289        C  0.28550382  0.36420240  0.93020368    -0.13700
C290        C  0.30849361  0.37223768  0.96545278     0.16700
C291        C  0.31524377  0.40913442  0.97641755     0.03000
C292        C  0.29841323  0.43734808  0.95280644    -0.12200
C293        C  0.27440733  0.42945994  0.91838758    -0.03300
C294        C  0.26862674  0.39239074  0.90647160     0.02200
C295        C  0.32671880  0.34210577  0.98949065     0.09000
N296        N  0.33769060  0.41824688  0.01299116     0.65400
H297        H  0.30276688  0.46548859  0.96291353     0.18300
N298        N  0.24650141  0.38297068  0.86967101     0.75900
H299        H  0.28103206  0.33591914  0.92072691     0.09800
C300        C  0.30655618  0.31644777  0.01449275     0.03500
C301        C  0.32505476  0.29019998  0.03965218    -0.05200
C302        C  0.36352064  0.28889797  0.03996170    -0.23600
C303        C  0.38349379  0.31273825  0.01204970     0.12800
C304        C  0.36501134  0.33941453  0.98775457    -0.12700
N305        N  0.26742737  0.31797055  0.01633901     0.64400
H306        H  0.30925323  0.27184686  0.06053858     0.12300
N307        N  0.42241547  0.30937246  0.00704529     0.61100
H308        H  0.38065174  0.35810985  0.96711683     0.08400
O309        O  0.21623577  0.36693243  0.87564125    -0.40400
O310        O  0.25967488  0.38558406  0.83135451    -0.39600
O311        O  0.36870190  0.43268743  0.00668271    -0.39600
O312        O  0.32471435  0.41607014  0.05143705    -0.37300
O313        O  0.43577589  0.28199107  0.98718207    -0.38200
O314        O  0.44295314  0.33584890  0.01697079    -0.34300
O315        O  0.24885865  0.29464422  0.99560734    -0.35700
O316        O  0.25166442  0.33897870  0.04350183    -0.40000
C317        C  0.23571091  0.28075686  0.31745944    -0.13700
C318        C  0.25721042  0.28523244  0.27946896     0.16700
C319        C  0.25932250  0.31991129  0.25925247     0.03000
C320        C  0.24237979  0.35008720  0.27892121    -0.12200
C321        C  0.22290336  0.34632602  0.31844906    -0.03300
C322        C  0.21805629  0.31109254  0.33678222     0.02200
C323        C  0.28079245  0.25531397  0.26284437     0.09000
N324        N  0.28150886  0.32543986  0.22089669     0.65400
H325        H  0.24672726  0.37711032  0.26495548     0.18300
N326        N  0.19785866  0.30627231  0.37676101     0.75900
H327        H  0.23389230  0.25408442  0.33303075     0.09800
C328        C  0.31637981  0.25087768  0.27968543     0.03500
C329        C  0.34342926  0.23392365  0.25391067    -0.05200
C330        C  0.33512352  0.22047763  0.21213220    -0.23600
C331        C  0.29839087  0.21999233  0.19831249     0.12800
C332        C  0.27150450  0.23797203  0.22346403    -0.12700
N333        N  0.32643898  0.26734724  0.32038051     0.64400
H334        H  0.37163774  0.23423965  0.26482460     0.12300
N335        N  0.28889346  0.20521665  0.15654049     0.61100
H336        H  0.24411667  0.24113397  0.21043409     0.08400
O337        O  0.21467536  0.30081324  0.41216427    -0.40400
O338        O  0.16367588  0.30119935  0.37541730    -0.39600
O339        O  0.26664728  0.32749546  0.18375834    -0.39600
O340        O  0.31507160  0.33302491  0.22471598    -0.37300
O341        O  0.28072271  0.17172068  0.15345148    -0.38200
O342        O  0.28259395  0.22650339  0.12484068    -0.34300
O343        O  0.32919215  0.24765469  0.35424718    -0.35700
O344        O  0.33843802  0.29977049  0.32088625    -0.40000
C345        C  0.93689928  0.49451327  0.84193027    -0.13700
C346        C  0.96002860  0.48016982  0.87392711     0.16700
C347        C  0.94622776  0.45334887  0.90325220     0.03000
C348        C  0.90921778  0.44263083  0.90107249    -0.12200
C349        C  0.88533290  0.45870245  0.87060393    -0.03300
C350        C  0.90009528  0.48395136  0.83969390     0.02200
C351        C  0.99861250  0.49319863  0.87525905     0.09000
N352        N  0.96861490  0.43883312  0.93746996     0.65400
H353        H  0.89854039  0.42381000  0.92556102     0.18300
N354        N  0.87786350  0.50004538  0.80640697     0.75900
H355        H  0.94749610  0.51434109  0.81854052     0.09800
C356        C  0.02787660  0.46953440  0.86471044     0.03500
C357        C  0.06390051  0.48205743  0.86796759    -0.05200
C358        C  0.07191570  0.51812960  0.88115491    -0.23600
C359        C  0.04268582  0.54233046  0.89017113     0.12800
C360        C  0.00627574  0.52977408  0.88692547    -0.12700
N361        N  0.02147295  0.43281562  0.85015836     0.64400
H362        H  0.08606856  0.46306475  0.86064124     0.12300
N363        N  0.04946161  0.57848654  0.90604944     0.61100
H364        H  0.98389335  0.54825348  0.89502595     0.08400
O365        O  0.86956665  0.48146690  0.77303043    -0.40400
O366        O  0.87242211  0.53423316  0.80643100    -0.39600
O367        O  0.97930012  0.45965268  0.96783250    -0.39600
O368        O  0.97226682  0.40457801  0.94152593    -0.37300
O369        O  0.04625907  0.60552818  0.88053364    -0.38200
O370        O  0.05277235  0.58384494  0.94672845    -0.34300
O371        O  0.00720906  0.42743435  0.81315333    -0.35700
O372        O  0.03584104  0.40624720  0.87029429    -0.40000
C373        C  0.64616825  0.34563972  0.01304324    -0.13700
C374        C  0.60969509  0.35634967  0.00632614     0.16700
C375        C  0.60238971  0.38627930  0.97862511     0.03000
C376        C  0.63137861  0.40402481  0.95688209    -0.12200
C377        C  0.66795739  0.39225136  0.96184130    -0.03300
C378        C  0.67518916  0.36317155  0.99119180     0.02200
C379        C  0.57984807  0.33474468  0.02717413     0.09000
N380        N  0.56557048  0.39764558  0.97040279     0.65400
H381        H  0.62495013  0.42632476  0.93467932     0.18300
N382        N  0.71179019  0.35181230  0.00042722     0.75900
H383        H  0.65212616  0.32310876  0.03513944     0.09800
C384        C  0.57593794  0.29737208  0.01702649     0.03500
C385        C  0.55030574  0.27616455  0.03972827    -0.05200
C386        C  0.52737829  0.29128966  0.07245218    -0.23600
C387        C  0.53065312  0.32918278  0.08192067     0.12800
C388        C  0.55682424  0.35049595  0.05925097    -0.12700
N389        N  0.59742366  0.28075116  0.98291800     0.64400
H390        H  0.54832958  0.24731866  0.03119099     0.12300
N391        N  0.50807427  0.34635860  0.11453725     0.61100
H392        H  0.55976180  0.37932194  0.06743472     0.08400
O393        O  0.72578726  0.32559095  0.97903877    -0.40400
O394        O  0.72611913  0.36151530  0.03609025    -0.39600
O395        O  0.55404826  0.42779708  0.98550822    -0.39600
O396        O  0.54655039  0.38038991  0.94290957    -0.37300
O397        O  0.51848707  0.34704765  0.15390031    -0.38200
O398        O  0.48157464  0.36632416  0.10293736    -0.34300
O399        O  0.62075523  0.25644338  0.99228375    -0.38100
O400        O  0.58922683  0.28627234  0.94331918    -0.40000
C401        C  0.47685929  0.95573947  0.66840636    -0.13700
C402        C  0.47217442  0.97655527  0.63032955     0.16700
C403        C  0.45261958  0.96166076  0.59499189     0.03000
C404        C  0.43888897  0.92578995  0.59776958    -0.12200
C405        C  0.44537379  0.90402592  0.63501255    -0.03300
C406        C  0.46409353  0.91966679  0.67090196     0.02200
C407        C  0.48628962  0.01450099  0.62936259     0.09000
N408        N  0.44790811  0.98214114  0.55548139     0.65400
H409        H  0.42561621  0.91402657  0.56938272     0.18300
N410        N  0.47217339  0.89865137  0.70920945     0.75900
H411        H  0.49138626  0.96731529  0.69602003     0.09800
C412        C  0.46803628  0.04189283  0.65327504     0.03500
C413        C  0.48199234  0.07734335  0.65376463    -0.05200
C414        C  0.51431453  0.08688048  0.63053231    -0.23600
C415        C  0.53310844  0.05904019  0.60718410     0.12800
C416        C  0.51898073  0.02309015  0.60681168    -0.12700
N417        N  0.43444384  0.03433637  0.67609930     0.64400
H418        H  0.46613109  0.09787547  0.67131684     0.12300
N419        N  0.56598689  0.06681764  0.58321068     0.61100
H420        H  0.53352911  0.00180822  0.58887063     0.08400
O421        O  0.44841548  0.89588541  0.73938513    -0.40400
O422        O  0.50497813  0.88988530  0.71685822    -0.39600
O423        O  0.47227514  0.98094450  0.52583580    -0.39600
O424        O  0.41769875  0.99774434  0.54800505    -0.37300
O425        O  0.59663087  0.06283247  0.60150438    -0.38200
O426        O  0.56469178  0.07202045  0.54231741    -0.34300
O427        O  0.43399112  0.03307162  0.71748208    -0.35700
O428        O  0.40456680  0.03510292  0.65556194    -0.40000
C429        C  0.37952610  0.33048976  0.58596079    -0.13700
C430        C  0.37492725  0.32857459  0.54034028     0.16700
C431        C  0.39940266  0.30741128  0.51477952     0.03000
C432        C  0.42669609  0.28703782  0.53538965    -0.12200
C433        C  0.43096014  0.28814827  0.58111994    -0.03300
C434        C  0.40743767  0.31054063  0.60653566     0.02200
C435        C  0.34420017  0.34837171  0.51979534     0.09000
N436        N  0.39765254  0.30732759  0.46784530     0.65400
H437        H  0.44511329  0.27054314  0.51534271     0.18300
N438        N  0.41011765  0.31161018  0.65325242     0.75900
H439        H  0.36081254  0.34685413  0.60572522     0.09800
C440        C  0.31528322  0.32943174  0.49945357     0.03500
C441        C  0.28813571  0.34911139  0.47737885    -0.05200
C442        C  0.28918576  0.38752756  0.47516664    -0.23600
C443        C  0.31775833  0.40641786  0.49663880     0.12800
C444        C  0.34486832  0.38670813  0.51871593    -0.12700
N445        N  0.31306363  0.29028591  0.50114556     0.64400
H446        H  0.26655076  0.33413859  0.46106447     0.12300
N447        N  0.31967367  0.44557038  0.49637756     0.61100
H448        H  0.36701467  0.40139269  0.53439345     0.08400
O449        O  0.39207816  0.28907463  0.67624596    -0.40400
O450        O  0.42530029  0.33859208  0.67147727    -0.39600
O451        O  0.40386676  0.33657454  0.44693170    -0.39600
O452        O  0.39669876  0.27728065  0.44733325    -0.37300
O453        O  0.30259350  0.46368727  0.52534876    -0.38200
O454        O  0.34290621  0.46148988  0.47208600    -0.34300
O455        O  0.30592358  0.27463747  0.53715415    -0.35700
O456        O  0.31192176  0.27204988  0.46598439    -0.40000
C457        C  0.65242885  0.25381731  0.77261593    -0.13700
C458        C  0.68546936  0.25993097  0.74989253     0.16700
C459        C  0.69136168  0.24313043  0.70884837     0.03000
C460        C  0.66272854  0.22381281  0.68907442    -0.12200
C461        C  0.62810923  0.22189867  0.70943335    -0.03300
C462        C  0.62365390  0.23507696  0.75258062     0.02200
C463        C  0.70858789  0.29066655  0.76450959     0.09000
N464        N  0.72473028  0.24892102  0.68491695     0.65400
H465        H  0.66623409  0.21428499  0.65558307     0.18300
N466        N  0.58886162  0.23294112  0.77445199     0.75900
H467        H  0.64771300  0.26672040  0.80423662     0.09800
C468        C  0.70008861  0.32637897  0.75017282     0.03500
C469        C  0.71612629  0.35643905  0.77049317    -0.05200
C470        C  0.74037762  0.35190614  0.80545712    -0.23600
C471        C  0.75113684  0.31609779  0.81767092     0.12800
C472        C  0.73500938  0.28567188  0.79713802    -0.12700
N473        N  0.67211146  0.33255124  0.71841886     0.64400
H474        H  0.70706378  0.38386154  0.76126100     0.12300
N475        N  0.77491884  0.31025228  0.85399049     0.61100
H476        H  0.74133852  0.25817133  0.80864467     0.08400
O477        O  0.58025523  0.20420273  0.79515363    -0.40400
O478        O  0.56915657  0.26126818  0.77829155    -0.39600
O479        O  0.74814288  0.22347748  0.68237018    -0.39600
O480        O  0.72814975  0.27682317  0.66074088    -0.37300
O481        O  0.76164003  0.30794125  0.89227044    -0.38200
O482        O  0.80799763  0.30160452  0.84716339    -0.34300
O483        O  0.63917343  0.33576615  0.73092962    -0.35700
O484        O  0.68093139  0.34167331  0.67980502    -0.40000
C485        C  0.48369970  0.16911229  0.41109151    -0.13700
C486        C  0.51050735  0.18745969  0.38611723     0.16700
C487        C  0.54166377  0.20136807  0.40684660     0.03000
C488        C  0.54517341  0.19796675  0.45214627    -0.12200
C489        C  0.51773094  0.18113834  0.47809736    -0.03300
C490        C  0.48708783  0.16573298  0.45685820     0.02200
C491        C  0.50368383  0.19647240  0.33970910     0.09000
N492        N  0.56903157  0.22089787  0.38249031     0.65400
H493        H  0.56916382  0.21001396  0.46710585     0.18300
N494        N  0.45882304  0.14753264  0.48115915     0.75900
H495        H  0.45944904  0.15853061  0.39517361     0.09800
C496        C  0.51409261  0.17280459  0.30531800     0.03500
C497        C  0.50740163  0.18296432  0.26172205    -0.05200
C498        C  0.49030698  0.21652662  0.25188733    -0.23600
C499        C  0.48058501  0.24045389  0.28664362     0.12800
C500        C  0.48740116  0.23025573  0.33002388    -0.12700
N501        N  0.53083598  0.13818985  0.31427818     0.64400
H502        H  0.51445042  0.16396594  0.23558447     0.12300
N503        N  0.46418297  0.27540217  0.27844460     0.61100
H504        H  0.47987591  0.24883117  0.35643314     0.08400
O505        O  0.46013430  0.11319053  0.48600947    -0.40400
O506        O  0.43007436  0.16477461  0.49189035    -0.39600
O507        O  0.56889795  0.25550000  0.38260739    -0.39600
O508        O  0.59637584  0.20389894  0.36695100    -0.37300
O509        O  0.48437466  0.30325732  0.27423304    -0.38200
O510        O  0.43013829  0.27959953  0.28436261    -0.34300
O511        O  0.51281741  0.10905211  0.30900689    -0.35700
O512        O  0.56492154  0.13643073  0.32067548    -0.40000
C513        C  0.47261487  0.16325346  0.81463434    -0.13700
C514        C  0.45746677  0.19037222  0.84163130     0.16700
C515        C  0.44680310  0.22429051  0.82330654     0.03000
C516        C  0.45172520  0.23038318  0.77819066    -0.12200
C517        C  0.46838872  0.20374355  0.75148453    -0.03300
C518        C  0.47916450  0.16989020  0.77005900     0.02200
C519        C  0.45416937  0.18300478  0.88912663     0.09000
N520        N  0.43384506  0.25368475  0.85054944     0.65400
H521        H  0.44489952  0.25696717  0.76449754     0.18300
N522        N  0.49963404  0.14326853  0.74538270     0.75900
H523        H  0.48128540  0.13744186  0.82891818     0.09800
C524        C  0.41967708  0.18080927  0.90969303     0.03500
C525        C  0.41749181  0.17642892  0.95504834    -0.05200
C526        C  0.44923299  0.17370300  0.98091508    -0.23600
C527        C  0.48389306  0.17309830  0.95972862     0.12800
C528        C  0.48599850  0.17830246  0.91409767    -0.12700
N529        N  0.38662449  0.18270430  0.88487502     0.64400
H530        H  0.39047773  0.17588919  0.97019424     0.12300
N531        N  0.51703455  0.16786083  0.98374739     0.61100
H532        H  0.51263941  0.17902531  0.89802201     0.08400
O533        O  0.53016874  0.15215902  0.72875911    -0.40400
O534        O  0.49211141  0.10967730  0.74969886    -0.39600
O535        O  0.45415208  0.26628090  0.88026133    -0.39600
O536        O  0.40489659  0.27068542  0.84065444    -0.37300
O537        O  0.54327923  0.19000835  0.97868613    -0.38200
O538        O  0.52281453  0.13750468  0.00238281    -0.34300
O539        O  0.37793045  0.15618143  0.86053392    -0.35700
O540        O  0.36332961  0.20748196  0.89304644    -0.40000
C541        C  0.95992305  0.54046134  0.37174317    -0.13700
C542        C  0.96918870  0.50350412  0.36343813     0.16700
C543        C  0.94075433  0.47819805  0.35679108     0.03000
C544        C  0.90427296  0.48952766  0.36002518    -0.12200
C545        C  0.89447612  0.52629088  0.36874049    -0.03300
C546        C  0.92295029  0.55201893  0.37421550     0.02200
C547        C  0.00814792  0.49076948  0.36475075     0.09000
N548        N  0.94848630  0.44071954  0.34629081     0.65400
H549        H  0.88337410  0.46876310  0.35614775     0.18300
N550        N  0.91492156  0.58976500  0.38225366     0.75900
H551        H  0.98145571  0.56030171  0.37733738     0.09800
C552        C  0.03542445  0.50599209  0.33734598     0.03500
C553        C  0.07177314  0.49362570  0.34013102    -0.05200
C554        C  0.08215412  0.46617840  0.37024939    -0.23600
C555        C  0.05453111  0.45036668  0.39705668     0.12800
C556        C  0.01813342  0.46279028  0.39414834    -0.12700
N557        N  0.02666803  0.53403073  0.30638742     0.64400
H558        H  0.09219494  0.50638449  0.31906845     0.12300
N559        N  0.06307648  0.42294897  0.42888400     0.61100
H560        H  0.99758848  0.45101799  0.41586045     0.08400
O561        O  0.91393968  0.61198157  0.35053204    -0.40400
O562        O  0.91465880  0.60181172  0.42106414    -0.39600
O563        O  0.93911698  0.41567667  0.37267547    -0.39600
O564        O  0.95889499  0.43237490  0.30796102    -0.37300
O565        O  0.05985135  0.38949771  0.41911440    -0.38200
O566        O  0.06774891  0.43204933  0.46838767    -0.34300
O567        O  0.03680831  0.56656462  0.31331632    -0.35700
O568        O  0.01495813  0.52525846  0.26901493    -0.40000
C569        C  0.64969528  0.32696096  0.51689984    -0.13700
C570        C  0.63230418  0.36101436  0.51193997     0.16700
C571        C  0.59648432  0.36576641  0.52830435     0.03000
C572        C  0.57887369  0.33683802  0.55012687    -0.12200
C573        C  0.59628356  0.30259969  0.55593181    -0.03300
C574        C  0.63198690  0.29773166  0.53821710     0.02200
C575        C  0.65207877  0.39118892  0.48946297     0.09000
N576        N  0.57801464  0.40014688  0.52391023     0.65400
H577        H  0.55147686  0.34153341  0.56305374     0.18300
N578        N  0.65053147  0.26327988  0.54096283     0.75900
H579        H  0.67716013  0.32298213  0.50378859     0.09800
C580        C  0.68027711  0.41020647  0.51076472     0.03500
C581        C  0.70114593  0.43610389  0.48767977    -0.05200
C582        C  0.69431083  0.44381792  0.44323513    -0.23600
C583        C  0.66516364  0.42545068  0.42228981     0.12800
C584        C  0.64434115  0.39939831  0.44554560    -0.12700
N585        N  0.68787755  0.40350561  0.55598222     0.64400
H586        H  0.72287804  0.45027998  0.50475785     0.12300
N587        N  0.65776249  0.43123934  0.37685094     0.61100
H588        H  0.62279011  0.38464164  0.42885123     0.08400
O589        O  0.67609728  0.25905555  0.56812506    -0.40400
O590        O  0.64528434  0.23925754  0.51190198    -0.39600
O591        O  0.55395547  0.40411170  0.49479730    -0.39600
O592        O  0.58170305  0.42442787  0.55301686    -0.37300
O593        O  0.67486573  0.41276547  0.34821608    -0.38200
O594        O  0.63049201  0.45035178  0.36577523    -0.34300
O595        O  0.71505295  0.38399950  0.56639512    -0.35700
O596        O  0.67054032  0.42099715  0.58529298    -0.40000
C597        C  0.80439482  0.56171442  0.60244755    -0.13700
C598        C  0.80337311  0.52682975  0.62179869     0.16700
C599        C  0.80865228  0.49574103  0.59458053     0.03000
C600        C  0.81128620  0.49979931  0.54886700    -0.12200
C601        C  0.80977942  0.53453862  0.52920700    -0.03300
C602        C  0.80827173  0.56584869  0.55681962     0.02200
C603        C  0.79068251  0.52263829  0.66837491     0.09000
N604        N  0.81021748  0.45966574  0.61292246     0.65400
H605        H  0.81305418  0.47541137  0.52859674     0.18300
N606        N  0.81006032  0.60209358  0.53903602     0.75900
H607        H  0.80043146  0.58595668  0.62252998     0.09800
C608        C  0.80607234  0.54190849  0.70403747     0.03500
C609        C  0.79271941  0.53593344  0.74702820    -0.05200
C610        C  0.76400486  0.51110328  0.75539270    -0.23600
C611        C  0.74679619  0.49432327  0.71902321     0.12800
C612        C  0.76033955  0.50009806  0.67654109    -0.12700
N613        N  0.83600856  0.56657956  0.69748946     0.64400
H614        H  0.80593701  0.54967030  0.77413886     0.12300
N615        N  0.71508083  0.47165700  0.72430295     0.61100
H616        H  0.74647632  0.48709141  0.64933151     0.08400
O617        O  0.78178569  0.62210630  0.53904220    -0.40400
O618        O  0.84087710  0.61598114  0.52995810    -0.39600
O619        O  0.78719585  0.43576223  0.60157096    -0.39600
O620        O  0.83733564  0.45037389  0.63584108    -0.37300
O621        O  0.71517588  0.43960445  0.70869273    -0.38200
O622        O  0.68513384  0.48587727  0.73663365    -0.34300
O623        O  0.83129883  0.60046957  0.70385067    -0.35700
O624        O  0.86813256  0.55407352  0.69330451    -0.40000
C625        C  0.81000658  0.46491416  0.20022496    -0.13700
C626        C  0.78136315  0.46899549  0.17026028     0.16700
C627        C  0.74522305  0.47351949  0.18622494     0.03000
C628        C  0.73883463  0.47706333  0.23141822    -0.12200
C629        C  0.76766810  0.47471091  0.26153881    -0.03300
C630        C  0.80344708  0.46731041  0.24565163     0.02200
C631        C  0.78959662  0.46947504  0.12246195     0.09000
N632        N  0.71476533  0.47414000  0.15695365     0.65400
H633        H  0.71117760  0.48253055  0.24310524     0.18300
N634        N  0.83379662  0.46487558  0.27480895     0.75900
H635        H  0.83778857  0.46083087  0.18819814     0.09800
C636        C  0.78433074  0.50137449  0.09698448     0.03500
C637        C  0.78795619  0.49978697  0.05108788    -0.05200
C638        C  0.79816436  0.46699025  0.03027300    -0.23600
C639        C  0.80693428  0.43613109  0.05634395     0.12800
C640        C  0.80199021  0.43740803  0.10194157    -0.12700
N641        N  0.77639272  0.53570496  0.11753862     0.64400
H642        H  0.78162546  0.52385745  0.03166673     0.12300
N643        N  0.82136293  0.40343454  0.03681208     0.61100
H644        H  0.80741538  0.41311818  0.12136959     0.08400
O645        O  0.86059842  0.48638754  0.26997565    -0.40400
O646        O  0.83714998  0.43695726  0.29892500    -0.39600
O647        O  0.70658322  0.44549184  0.13601222    -0.39600
O648        O  0.69250503  0.50068335  0.15790017    -0.37300
O649        O  0.85474502  0.40214399  0.02564625    -0.38200
O650        O  0.80273360  0.37433771  0.03735950    -0.34300
O651        O  0.80174977  0.55277919  0.13655542    -0.35700
O652        O  0.74651258  0.55185174  0.10997581    -0.40000
C653        C  0.60328147  0.68088514  0.56690756    -0.13700
C654        C  0.59758756  0.67114023  0.52292692     0.16700
C655        C  0.56405849  0.68014753  0.50286606     0.03000
C656        C  0.53735683  0.69954628  0.52666715    -0.12200
C657        C  0.54319090  0.70947866  0.57045831    -0.03300
C658        C  0.57635620  0.70000869  0.59074888     0.02200
C659        C  0.62683326  0.65106623  0.49900992     0.09000
N660        N  0.55624505  0.66870442  0.45904033     0.65400
H661        H  0.51169085  0.70660826  0.51103599     0.18300
N662        N  0.58379543  0.71137831  0.63461816     0.75900
H663        H  0.62902586  0.67413416  0.58251013     0.09800
C664        C  0.64680542  0.66718004  0.46410263     0.03500
C665        C  0.67478562  0.64719660  0.44312540    -0.05200
C666        C  0.68300577  0.61124486  0.45620233    -0.23600
C667        C  0.66283968  0.59516741  0.49088985     0.12800
C668        C  0.63514719  0.61519457  0.51207666    -0.12700
N669        N  0.63947727  0.70390660  0.45016386     0.64400
H670        H  0.68980382  0.65962703  0.41608775     0.12300
N671        N  0.67093567  0.55889255  0.50576736     0.61100
H672        H  0.62001329  0.60269116  0.53895748     0.08400
O673        O  0.59865918  0.74206461  0.64129661    -0.40400
O674        O  0.58093889  0.68866616  0.66569218    -0.39600
O675        O  0.55154799  0.63509058  0.45108085    -0.39600
O676        O  0.54718001  0.69219368  0.43068800    -0.37300
O677        O  0.69660324  0.55385211  0.53260080    -0.38200
O678        O  0.64929790  0.53295284  0.49723734    -0.34300
O679        O  0.64971959  0.73043091  0.47359622    -0.35700
O680        O  0.62937275  0.70984389  0.41129524    -0.40000
C681        C  0.45529353  0.02447738  0.11369301    -0.13700
C682        C  0.47719059  0.01445049  0.14941134     0.16700
C683        C  0.48359213  0.04033779  0.18279995     0.03000
C684        C  0.46933604  0.07596465  0.17903839    -0.12200
C685        C  0.44904510  0.08671702  0.14210118    -0.03300
C686        C  0.44131724  0.06021631  0.10968324     0.02200
C687        C  0.49325069  0.97692880  0.15072109     0.09000
N688        N  0.50666292  0.03170267  0.21908134     0.65400
H689        H  0.47590776  0.09595746  0.20408869     0.18300
N690        N  0.42211174  0.06989141  0.07068481     0.75900
H691        H  0.45000478  0.00468936  0.08798199     0.09800
C692        C  0.48118914  0.95073750  0.18156708     0.03500
C693        C  0.49394779  0.91453082  0.17869872    -0.05200
C694        C  0.51776447  0.90322886  0.14455860    -0.23600
C695        C  0.53182289  0.93012000  0.11564290     0.12800
C696        C  0.51949464  0.96659263  0.11897012    -0.12700
N697        N  0.45323826  0.95950317  0.21313480     0.64400
H698        H  0.48270907  0.89442085  0.20130610     0.12300
N699        N  0.55596328  0.92034874  0.08035429     0.61100
H700        H  0.52921333  0.98665269  0.09533041     0.08400
O701        O  0.38934450  0.05974080  0.06588151    -0.40400
O702        O  0.43947942  0.08335326  0.03851096    -0.39600
O703        O  0.54065832  0.02741931  0.21281435    -0.39600
O704        O  0.49438144  0.03473599  0.25776929    -0.37300
O705        O  0.54291099  0.91158130  0.04362734    -0.38200
O706        O  0.58989855  0.92623897  0.08370514    -0.34300
O707        O  0.42064098  0.96401882  0.20063990    -0.35700
O708        O  0.45963136  0.95593584  0.25353752    -0.40000
C709        C  0.37595112  0.69323518  0.00839465    -0.13700
C710        C  0.35620377  0.66865198  0.03476925     0.16700
C711        C  0.36405292  0.66642116  0.07990181     0.03000
C712        C  0.39230246  0.68786435  0.09747246    -0.12200
C713        C  0.41261119  0.71212000  0.07086567    -0.03300
C714        C  0.40358023  0.71516320  0.02597652     0.02200
C715        C  0.32904803  0.64446478  0.01347155     0.09000
N716        N  0.34439226  0.64177127  0.10794389     0.65400
H717        H  0.39845232  0.68543294  0.13210245     0.18300
N718        N  0.42249079  0.73998815  0.99750478     0.75900
H719        H  0.36992353  0.69530376  0.97368030     0.09800
C720        C  0.29097907  0.64846686  0.02038564     0.03500
C721        C  0.26648826  0.62658927  0.99670996    -0.05200
C722        C  0.27918610  0.60138033  0.96502440    -0.23600
C723        C  0.31752094  0.59679469  0.95930740     0.12800
C724        C  0.34185373  0.61823892  0.98345334    -0.12700
N725        N  0.27670844  0.67634378  0.04883158     0.64400
H726        H  0.23730670  0.63078196  0.00159508     0.12300
N727        N  0.33238073  0.57057351  0.92912242     0.61100
H728        H  0.37111047  0.61481947  0.97818436     0.08400
O729        O  0.40872833  0.77114531  0.99029334    -0.40400
O730        O  0.44757810  0.72810653  0.97249722    -0.39600
O731        O  0.35194385  0.60799508  0.10718096    -0.39600
O732        O  0.32422816  0.65434493  0.13830213    -0.37300
O733        O  0.34415621  0.58112349  0.89215579    -0.38200
O734        O  0.33988867  0.53864624  0.94230563    -0.34300
O735        O  0.28016687  0.70961852  0.03820454    -0.35700
O736        O  0.25498650  0.66777252  0.07962703    -0.40000
C737        C  0.58125566  0.63731615  0.99238383    -0.13700
C738        C  0.61945246  0.63482792  0.99578014     0.16700
C739        C  0.63840469  0.66070334  0.02145131     0.03000
C740        C  0.61869841  0.68731734  0.04486485    -0.12200
C741        C  0.58032886  0.68937257  0.04249737    -0.03300
C742        C  0.56159873  0.66436031  0.01533540     0.02200
C743        C  0.63918165  0.60434586  0.97379467     0.09000
N744        N  0.67766899  0.66093124  0.02305870     0.65400
H745        H  0.63361550  0.70658039  0.06504580     0.18300
N746        N  0.52293031  0.66703302  0.00910543     0.75900
H747        H  0.56658226  0.61788780  0.97217482     0.09800
C748        C  0.65952385  0.57886837  0.99841413     0.03500
C749        C  0.68223061  0.55362267  0.97684399    -0.05200
C750        C  0.68318496  0.55158340  0.93085103    -0.23600
C751        C  0.66036692  0.57500293  0.90628295     0.12800
C752        C  0.63910361  0.60167327  0.92787281    -0.12700
N753        N  0.65610018  0.57742906  0.04520794     0.64400
H754        H  0.69847740  0.53475365  0.99618411     0.12300
N755        N  0.65959672  0.57302974  0.85949173     0.61100
H756        H  0.62300010  0.62077766  0.90873480     0.08400
O757        O  0.50157352  0.64755279  0.03205575    -0.40400
O758        O  0.51104278  0.68229746  0.97490615    -0.39600
O759        O  0.69609786  0.66445296  0.98804709    -0.39600
O760        O  0.69364742  0.66333769  0.05951362    -0.37300
O761        O  0.63595669  0.55321241  0.84108585    -0.38200
O762        O  0.67787087  0.59565638  0.83691306    -0.34300
O763        O  0.62563242  0.56930672  0.06258854    -0.35700
O764        O  0.68430974  0.57886562  0.06874020    -0.40000
C765        C  0.64581371  0.70971302  0.25553995    -0.13700
C766        C  0.68052699  0.71569098  0.23684221     0.16700
C767        C  0.68394631  0.73965204  0.20078086     0.03000
C768        C  0.65248478  0.75634822  0.18323280    -0.12200
C769        C  0.61742267  0.74851219  0.20039783    -0.03300
C770        C  0.61439721  0.72532772  0.23728607     0.02200
C771        C  0.71111297  0.69226139  0.25217944     0.09000
N772        N  0.71876860  0.74548001  0.18015335     0.65400
H773        H  0.65520771  0.77328693  0.15413629     0.18300
N774        N  0.57935093  0.71559279  0.25496505     0.75900
H775        H  0.64284318  0.69090450  0.28293018     0.09800
C776        C  0.72840612  0.69928237  0.29244012     0.03500
C777        C  0.74798559  0.67124792  0.31347722    -0.05200
C778        C  0.74994949  0.63594581  0.29527541    -0.23600
C779        C  0.73516094  0.62983829  0.25335863     0.12800
C780        C  0.71630110  0.65807997  0.23190058    -0.12700
N781        N  0.72306342  0.73350308  0.31437755     0.64400
H782        H  0.75837742  0.67605256  0.34619411     0.12300
N783        N  0.73623330  0.59414462  0.23408320     0.61100
H784        H  0.70270703  0.65221082  0.20120407     0.08400
O785        O  0.56477131  0.68576496  0.24357181    -0.40400
O786        O  0.56703623  0.73243518  0.28814147    -0.39600
O787        O  0.72677331  0.72868878  0.14513807    -0.39600
O788        O  0.73913045  0.77108746  0.19324881    -0.37300
O789        O  0.70914897  0.57293088  0.23839244    -0.38200
O790        O  0.76163573  0.58608057  0.20742238    -0.34300
O791        O  0.69978825  0.73599755  0.34514284    -0.35700
O792        O  0.74501152  0.75957453  0.30726486    -0.40000
C793        C  0.54287378  0.82094024  0.90497493    -0.13700
C794        C  0.50872786  0.81834455  0.88459259     0.16700
C795        C  0.47660320  0.82209855  0.91064799     0.03000
C796        C  0.47909777  0.82508002  0.95649503    -0.12200
C797        C  0.51324187  0.82429481  0.97726496    -0.03300
C798        C  0.54541767  0.82434821  0.95067241     0.02200
C799        C  0.50686380  0.80615329  0.83789994     0.09000
N800        N  0.44118207  0.82169304  0.89097784     0.65400
H801        H  0.45411973  0.82600994  0.97601913     0.18300
N802        N  0.58102715  0.82678730  0.96967644     0.75900
H803        H  0.56785369  0.81838337  0.88559629     0.09800
C804        C  0.52552306  0.82408970  0.80312631     0.03500
C805        C  0.52224213  0.81096553  0.75983333    -0.05200
C806        C  0.50055965  0.78016904  0.75040145    -0.23600
C807        C  0.48527197  0.76018834  0.78603276     0.12800
C808        C  0.48823875  0.77353815  0.82885277    -0.12700
N809        N  0.54664458  0.85637852  0.81091181     0.64400
H810        H  0.53514741  0.82608484  0.73326731     0.12300
N811        N  0.46726589  0.72579869  0.77954553     0.61100
H812        H  0.47636057  0.75776078  0.85560077     0.08400
O813        O  0.59407920  0.85784416  0.97883578    -0.40400
O814        O  0.60156182  0.79889746  0.97049617    -0.39600
O815        O  0.42094242  0.79385293  0.89505109    -0.39600
O816        O  0.42801870  0.85096781  0.87559828    -0.37300
O817        O  0.48537826  0.69877597  0.76510495    -0.38200
O818        O  0.43566092  0.72064065  0.79557577    -0.34300
O819        O  0.58046406  0.85663734  0.80173270    -0.35700
O820        O  0.53080001  0.88583465  0.82181798    -0.40000
C821        C  0.48720105  0.81082081  0.40842401    -0.13700
C822        C  0.45470321  0.81382698  0.38424564     0.16700
C823        C  0.42181000  0.82234526  0.40656716     0.03000
C824        C  0.42146993  0.82547005  0.45244976    -0.12200
C825        C  0.45351052  0.82024775  0.47716528    -0.03300
C826        C  0.48696905  0.81438929  0.45444532     0.02200
C827        C  0.45485344  0.80378725  0.33685835     0.09000
N828        N  0.38794998  0.82473790  0.38351539     0.65400
H829        H  0.39543875  0.82997934  0.46909046     0.18300
N830        N  0.52039724  0.80908149  0.47765022     0.75900
H831        H  0.51270587  0.80428892  0.39158369     0.09800
C832        C  0.45039733  0.82999574  0.30319810     0.03500
C833        C  0.45128220  0.81889544  0.25895131    -0.05200
C834        C  0.45732094  0.78203291  0.24751793    -0.23600
C835        C  0.45993367  0.75569683  0.28137498     0.12800
C836        C  0.45887358  0.76674982  0.32544436    -0.12700
N837        N  0.44787270  0.86819439  0.31326326     0.64400
H838        H  0.45002195  0.83957553  0.23343910     0.12300
N839        N  0.46327099  0.71751335  0.27140915     0.61100
H840        H  0.46126528  0.74623396  0.35103785     0.08400
O841        O  0.54042777  0.83636855  0.48576430    -0.40400
O842        O  0.53344640  0.77718593  0.48139872    -0.39600
O843        O  0.37006811  0.79589915  0.37582126    -0.39600
O844        O  0.37271864  0.85555092  0.37865231    -0.37300
O845        O  0.49145716  0.70006188  0.28303201    -0.38200
O846        O  0.43555319  0.70008118  0.25845593    -0.34300
O847        O  0.47618341  0.88519712  0.32518810    -0.35700
O848        O  0.41979720  0.88609254  0.30217181    -0.40000
loop_ 
_geom_bond_atom_site_label_1 
_geom_bond_atom_site_label_2 
_geom_bond_distance 
_geom_bond_site_symmetry_2 
_ccdc_geom_bond_type 
O1          Cr19   2.038       .  S
O1            C9   1.277       .  A
O2          Cr19   1.951       .  S
O2            C3   1.252       .  A
C3            O4   1.270       .  A
C3          C694   1.490       .  S
O4          Cr20   2.039       .  S
O5          Cr20   1.988       .  S
O5            C6   1.263       .  A
C6            O7   1.265       .  A
C6          C769   1.480       .  S
O7          Cr21   2.004       .  S
O8          Cr21   1.960       .  S
O8            C9   1.261       .  A
C9          C834   1.486       .  S
O10         Cr19   1.974       .  S
O10          C18   1.253       .  A
O11         Cr19   2.037       .  S
O11          C12   1.273       .  A
C12          O13   1.254       .  A
C12         C797   1.492   1_554  S
O13         Cr20   1.952       .  S
O14         Cr20   2.018       .  S
O14          C15   1.273       .  A
C15          O16   1.263       .  A
C15         C741   1.480       .  S
O16         Cr21   1.976       .  S
O17         Cr21   2.016       .  S
O17          C18   1.262       .  A
C18         C713   1.486       .  S
Cr19         O22   1.768       .  S
Cr20         O22   1.778       .  S
Cr21         O22   1.774       .  S
O23         Cr41   2.036       .  S
O23          C31   1.274       .  A
O24         Cr41   1.944       .  S
O24          C25   1.250       .  A
C25          O26   1.272       .  A
C25         C545   1.499       .  S
O26         Cr42   2.055       .  S
O27         Cr42   1.993       .  S
O27          C28   1.265       .  A
C28          O29   1.265       .  A
C28         C778   1.474       .  S
O29         Cr43   2.000       .  S
O30         Cr43   1.950       .  S
O30          C31   1.257       .  A
C31         C629   1.481       .  S
O32         Cr41   1.971       .  S
O32          C40   1.254       .  A
O33         Cr41   2.032       .  S
O33          C34   1.273       .  A
C34          O35   1.257       .  A
C34         C601   1.493       .  S
O35         Cr42   1.961       .  S
O36         Cr42   2.031       .  S
O36          C37   1.273       .  A
C37          O38   1.260       .  A
C37         C666   1.473       .  S
O38         Cr43   1.964       .  S
O39         Cr43   2.017       .  S
O39          C40   1.263       .  A
C40         C582   1.488       .  S
Cr41         O44   1.762       .  S
Cr42         O44   1.780       .  S
Cr43         O44   1.769       .  S
O45         Cr63   1.952       .  S
O45          C53   1.255       .  A
O46         Cr63   1.999       .  S
O46          C47   1.267       .  A
C47          O48   1.262       .  A
C47         C461   1.467       .  S
O48         Cr64   1.983       .  S
O49         Cr64   2.057       .  S
O49          C50   1.273       .  A
C50          O51   1.247       .  A
C50         C414   1.493       .  S
O51         Cr65   1.927       .  S
O52         Cr65   2.028       .  S
O52          C53   1.272       .  A
C53         C517   1.468       .  S
O54         Cr63   2.025       .  S
O54          C62   1.266       .  A
O55         Cr63   1.966       .  S
O55          C56   1.262       .  A
C56          O57   1.275       .  A
C56         C573   1.494       .  S
O57         Cr64   2.036       .  S
O58         Cr64   1.943       .  S
O58          C59   1.255       .  A
C59          O60   1.271       .  A
C59         C489   1.489       .  S
O60         Cr65   2.034       .  S
O61         Cr65   1.947       .  S
O61          C62   1.251       .  A
C62         C433   1.474       .  S
Cr63         O66   1.765       .  S
Cr64         O66   1.772       .  S
Cr65         O66   1.757       .  S
O67         Cr85   1.957       .  S
O67          C75   1.259       .  A
O68         Cr85   1.990       .  S
O68          C69   1.263       .  A
C69          O70   1.261       .  A
C69         C470   1.475       .  S
O70         Cr86   1.988       .  S
O71         Cr86   2.041       .  S
O71          C72   1.273       .  A
C72          O73   1.253       .  A
C72         C349   1.493       .  S
O73         Cr87   1.954       .  S
O74         Cr87   2.045       .  S
O74          C75   1.277       .  A
C75         C610   1.496       .  S
O76         Cr85   2.012       .  S
O76          C84   1.260       .  A
O77         Cr85   1.967       .  S
O77          C78   1.263       .  A
C78          O79   1.276       .  A
C78         C377   1.489       .  S
O79         Cr86   2.034       .  S
O80         Cr86   1.948       .  S
O80          C81   1.254       .  A
C81          O82   1.271       .  A
C81         C638   1.481   1_556  S
O82         Cr87   2.032       .  S
O83         Cr87   1.967       .  S
O83          C84   1.252       .  A
C84         C750   1.475       .  S
Cr85         O88   1.768       .  S
Cr86         O88   1.776       .  S
Cr87         O88   1.767       .  S
O89        Cr107   2.023       .  S
O89          C97   1.273       .  A
O90        Cr107   1.961       .  S
O90          C91   1.253       .  A
C91          O92   1.268       .  A
C91         C685   1.487       .  S
O92        Cr108   2.031       .  S
O93        Cr108   1.979       .  S
O93          C94   1.261       .  A
C94          O95   1.268       .  A
C94         C330   1.467       .  S
O95        Cr109   2.005       .  S
O96        Cr109   1.955       .  S
O96          C97   1.258       .  A
C97         C498   1.479       .  S
O98        Cr107   1.960       .  S
O98         C106   1.254       .  A
O99        Cr107   2.029       .  S
O99         C100   1.271       .  A
C100        O101   1.255       .  A
C100        C526   1.484   1_554  S
O101       Cr108   1.938       .  S
O102       Cr108   2.026       .  S
O102        C103   1.271       .  A
C103        O104   1.259       .  A
C103        C302   1.480       .  S
O104       Cr109   1.967       .  S
O105       Cr109   2.020       .  S
O105        C106   1.263       .  A
C106        C386   1.492       .  S
Cr107       O110   1.763       .  S
Cr108       O110   1.775       .  S
Cr109       O110   1.769       .  S
O111       Cr129   2.019       .  S
O111        C119   1.271       .  A
O112       Cr129   1.959       .  S
O112        C113   1.256       .  A
C113        O114   1.272       .  A
C113        C554   1.496       .  S
O114       Cr130   2.038       .  S
O115       Cr130   1.983       .  S
O115        C116   1.262       .  A
C116        O117   1.266       .  A
C116        C321   1.468       .  S
O117       Cr131   1.998       .  S
O118       Cr131   1.943       .  S
O118        C119   1.256       .  A
C119        C274   1.467       .  S
O120       Cr129   1.963       .  S
O120        C128   1.254       .  A
O121       Cr129   2.017       .  S
O121        C122   1.267       .  A
C122        O123   1.256       .  A
C122        C246   1.471       .  S
O123       Cr130   1.942       .  S
O124       Cr130   2.029       .  S
O124        C125   1.273       .  A
C125        O126   1.257       .  A
C125        C442   1.479       .  S
O126       Cr131   1.960       .  S
O127       Cr131   2.009       .  S
O127        C128   1.261       .  A
C128        C209   1.471       .  S
Cr129       O132   1.765       .  S
Cr130       O132   1.770       .  S
Cr131       O132   1.766       .  S
O133       Cr151   2.004       .  S
O133        C141   1.273       .  A
O134       Cr151   1.979       .  S
O134        C135   1.261       .  A
C135        O136   1.268       .  A
C135        C181   1.491       .  S
O136       Cr152   2.010       .  S
O137       Cr152   2.030       .  S
O137        C138   1.267       .  A
C138        O139   1.249       .  A
C138        C358   1.482       .  S
O139       Cr153   1.965       .  S
O140       Cr153   1.974       .  S
O140        C141   1.267       .  A
C141        C237   1.474       .  S
O142       Cr151   1.997       .  S
O142        C150   1.256       .  A
O143       Cr151   1.987       .  S
O143        C144   1.262       .  A
C144        O145   1.263       .  A
C144        C722   1.489       .  S
O145       Cr152   1.987       .  S
O146       Cr152   2.003       .  S
O146        C147   1.273       .  A
C147        O148   1.270       .  A
C147        C265   1.463   1_556  S
O148       Cr153   1.976       .  S
O149       Cr153   1.990       .  S
O149        C150   1.252       .  A
C150        C293   1.481       .  S
Cr151       O154   1.766       .  S
Cr152       O154   1.772       .  S
Cr153       O154   1.774       .  S
O155       Cr173   1.955       .  S
O155        C163   1.258       .  A
O156       Cr173   1.998       .  S
O156        C157   1.267       .  A
C157        O158   1.267       .  A
C157        C190   1.487       .  S
O158       Cr174   2.004       .  S
O159       Cr174   2.033       .  S
O159        C160   1.270       .  A
C160        O161   1.251       .  A
C160        C405   1.481       .  S
O161       Cr175   1.953       .  S
O162       Cr175   2.043       .  S
O162        C163   1.276       .  A
C163        C806   1.494       .  S
O164       Cr173   2.017       .  S
O164        C172   1.262       .  A
O165       Cr173   1.969       .  S
O165        C166   1.262       .  A
C166        O167   1.270       .  A
C166        C218   1.481       .  S
O167       Cr174   2.016       .  S
O168       Cr174   1.961       .  S
O168        C169   1.258       .  A
C169        O170   1.273       .  A
C169        C825   1.493       .  S
O170       Cr175   2.039       .  S
O171       Cr175   1.960       .  S
O171        C172   1.249       .  A
C172        C657   1.467       .  S
Cr173       O176   1.767       .  S
Cr174       O176   1.778       .  S
Cr175       O176   1.768       .  S
C177        C178   1.403       .  A
C177        C182   1.405       .  A
C177        H187   1.084       .  S
C178        C183   1.487       .  S
C178        C179   1.408       .  A
C179        C180   1.405       .  A
C179        N184   1.429       .  S
C180        C181   1.408       .  A
C180        H185   1.084       .  S
C181        C182   1.415       .  A
C182        N186   1.430       .  S
C183        C188   1.408       .  A
C183        C192   1.406       .  A
N184        O199   1.262       .  A
N184        O200   1.262       .  A
N186        O197   1.262       .  A
N186        O198   1.262       .  A
C188        C189   1.395       .  A
C188        N193   1.430       .  S
C189        C190   1.403       .  A
C189        H194   1.094       .  S
C190        C191   1.416       .  A
C191        C192   1.412       .  A
C191        N195   1.429       .  S
C192        H196   1.089       .  S
N193        O203   1.262       .  A
N193        O204   1.262       .  A
N195        O201   1.261       .  A
N195        O202   1.262       .  A
C205        C206   1.403       .  A
C205        C210   1.402       .  A
C205        H215   1.084       .  S
C206        C211   1.476       .  S
C206        C207   1.408       .  A
C207        C208   1.393       .  A
C207        N212   1.430       .  S
C208        C209   1.402       .  A
C208        H213   1.084       .  S
C209        C210   1.411       .  A
C210        N214   1.429       .  S
C211        C216   1.406       .  A
C211        C220   1.400       .  A
N212        O227   1.262       .  A
N212        O228   1.262       .  A
N214        O225   1.262       .  A
N214        O226   1.262       .  A
C216        C217   1.399       .  A
C216        N221   1.428       .  S
C217        C218   1.408       .  A
C217        H222   1.085       .  S
C218        C219   1.415       .  A
C219        C220   1.396       .  A
C219        N223   1.428       .  S
C220        H224   1.085       .  S
N221        O231   1.262       .  A
N221        O232   1.262       .  A
N223        O229   1.262       .  A
N223        O230   1.262       .  A
C233        C234   1.396       .  A
C233        C238   1.398       .  A
C233        H243   1.084       .  S
C234        C239   1.463       .  S
C234        C235   1.404       .  A
C235        C236   1.393       .  A
C235        N240   1.430       .  S
C236        C237   1.405       .  A
C236        H241   1.084       .  S
C237        C238   1.416       .  A
C238        N242   1.430       .  S
C239        C244   1.401       .  A
C239        C248   1.401       .  A
N240        O255   1.262       .  A
N240        O256   1.262       .  A
N242        O253   1.262       .  A
N242        O254   1.262       .  A
C244        C245   1.389       .  A
C244        N249   1.430       .  S
C245        C246   1.405       .  A
C245        H250   1.085       .  S
C246        C247   1.412       .  A
C247        C248   1.402       .  A
C247        N251   1.429       .  S
C248        H252   1.084       .  S
N249        O259   1.261       .  A
N249        O260   1.262       .  A
N251        O257   1.262       .  A
N251        O258   1.262       .  A
C261        C262   1.403       .  A
C261        C266   1.399       .  A
C261        H271   1.084       .  S
C262        C267   1.464       .  S
C262        C263   1.402       .  A
C263        C264   1.392       .  A
C263        N268   1.429       .  S
C264        C265   1.404       .  A
C264        H269   1.083       .  S
C265        C266   1.406       .  A
C266        N270   1.429       .  S
C267        C272   1.406       .  A
C267        C276   1.396       .  A
N268        O283   1.262       .  A
N268        O284   1.261       .  A
N270        O281   1.262       .  A
N270        O282   1.262       .  A
C272        C273   1.398       .  A
C272        N277   1.429       .  S
C273        C274   1.403       .  A
C273        H278   1.084       .  S
C274        C275   1.413       .  A
C275        C276   1.394       .  A
C275        N279   1.430       .  S
C276        H280   1.085       .  S
N277        O287   1.262       .  A
N277        O288   1.261       .  A
N279        O285   1.262       .  A
N279        O286   1.262       .  A
C289        C290   1.400       .  A
C289        C294   1.401       .  A
C289        H299   1.084       .  S
C290        C295   1.480       .  S
C290        C291   1.409       .  A
C291        C292   1.399       .  A
C291        N296   1.429   1_556  S
C292        C293   1.403       .  A
C292        H297   1.084       .  S
C293        C294   1.417       .  A
C294        N298   1.430       .  S
C295        C300   1.410   1_556  A
C295        C304   1.400       .  A
N296        O311   1.262       .  A
N296        O312   1.262       .  A
N298        O309   1.262       .  A
N298        O310   1.262       .  A
C300        C301   1.402       .  A
C300        N305   1.429       .  S
C301        C302   1.404       .  A
C301        H306   1.086       .  S
C302        C303   1.414       .  A
C303        C304   1.398   1_554  A
C303        N307   1.431       .  S
C304        H308   1.086       .  S
N305        O315   1.262   1_554  A
N305        O316   1.262       .  A
N307        O313   1.262   1_554  A
N307        O314   1.262       .  A
C317        C318   1.402       .  A
C317        C322   1.405       .  A
C317        H327   1.084       .  S
C318        C323   1.475       .  S
C318        C319   1.408       .  A
C319        C320   1.394       .  A
C319        N324   1.430       .  S
C320        C321   1.399       .  A
C320        H325   1.085       .  S
C321        C322   1.412       .  A
C322        N326   1.429       .  S
C323        C328   1.409       .  A
C323        C332   1.401       .  A
N324        O339   1.262       .  A
N324        O340   1.262       .  A
N326        O337   1.262       .  A
N326        O338   1.262       .  A
C328        C329   1.398       .  A
C328        N333   1.429       .  S
C329        C330   1.400       .  A
C329        H334   1.084       .  S
C330        C331   1.408       .  A
C331        C332   1.401       .  A
C331        N335   1.428       .  S
C332        H336   1.084       .  S
N333        O343   1.262       .  A
N333        O344   1.262       .  A
N335        O341   1.262       .  A
N335        O342   1.261       .  A
C345        C346   1.396       .  A
C345        C350   1.399       .  A
C345        H355   1.084       .  S
C346        C351   1.487       .  S
C346        C347   1.415       .  A
C347        C348   1.408       .  A
C347        N352   1.431       .  S
C348        C349   1.406       .  A
C348        H353   1.084       .  S
C349        C350   1.420       .  A
C350        N354   1.430       .  S
C351        C356   1.406   1_655  A
C351        C360   1.410   1_655  A
N352        O367   1.262       .  A
N352        O368   1.262       .  A
N354        O365   1.262       .  A
N354        O366   1.262       .  A
C356        C357   1.396       .  A
C356        N361   1.431       .  S
C357        C358   1.408       .  A
C357        H362   1.085       .  S
C358        C359   1.408       .  A
C359        C360   1.410       .  A
C359        N363   1.427       .  S
C360        H364   1.084   1_455  S
N361        O371   1.262       .  A
N361        O372   1.262       .  A
N363        O369   1.261       .  A
N363        O370   1.262       .  A
C373        C374   1.402       .  A
C373        C378   1.401   1_554  A
C373        H383   1.085       .  S
C374        C379   1.483       .  S
C374        C375   1.406   1_554  A
C375        C376   1.402       .  A
C375        N380   1.429       .  S
C376        C377   1.410       .  A
C376        H381   1.084       .  S
C377        C378   1.413       .  A
C378        N382   1.427   1_556  S
C379        C384   1.405       .  A
C379        C388   1.405       .  A
N380        O395   1.262       .  A
N380        O396   1.262       .  A
N382        O393   1.262   1_554  A
N382        O394   1.261       .  A
C384        C385   1.393       .  A
C384        N389   1.430   1_554  S
C385        C386   1.407       .  A
C385        H390   1.086       .  S
C386        C387   1.417       .  A
C387        C388   1.408       .  A
C387        N391   1.429       .  S
C388        H392   1.086       .  S
N389        O399   1.262       .  A
N389        O400   1.262       .  A
N391        O397   1.262       .  A
N391        O398   1.262       .  A
C401        C402   1.398       .  A
C401        C406   1.398       .  A
C401        H411   1.085       .  S
C402        C407   1.478   1_565  S
C402        C403   1.407       .  A
C403        C404   1.404       .  A
C403        N408   1.428       .  S
C404        C405   1.406       .  A
C404        H409   1.084       .  S
C405        C406   1.415       .  A
C406        N410   1.429       .  S
C407        C412   1.400       .  A
C407        C416   1.406       .  A
N408        O423   1.262       .  A
N408        O424   1.261       .  A
N410        O421   1.262       .  A
N410        O422   1.261       .  A
C412        C413   1.391       .  A
C412        N417   1.430       .  S
C413        C414   1.413       .  A
C413        H418   1.083       .  S
C414        C415   1.412       .  A
C415        C416   1.410       .  A
C415        N419   1.427       .  S
C416        H420   1.084       .  S
N417        O427   1.262       .  A
N417        O428   1.262       .  A
N419        O425   1.262       .  A
N419        O426   1.262       .  A
C429        C430   1.404       .  A
C429        C434   1.402       .  A
C429        H439   1.084       .  S
C430        C435   1.476       .  S
C430        C431   1.408       .  A
C431        C432   1.395       .  A
C431        N436   1.432       .  S
C432        C433   1.404       .  A
C432        H437   1.085       .  S
C433        C434   1.410       .  A
C434        N438   1.428       .  S
C435        C440   1.410       .  A
C435        C444   1.399       .  A
N436        O451   1.262       .  A
N436        O452   1.262       .  A
N438        O449   1.262       .  A
N438        O450   1.262       .  A
C440        C441   1.399       .  A
C440        N445   1.431       .  S
C441        C442   1.403       .  A
C441        H446   1.084       .  S
C442        C443   1.416       .  A
C443        C444   1.399       .  A
C443        N447   1.430       .  S
C444        H448   1.085       .  S
N445        O455   1.262       .  A
N445        O456   1.262       .  A
N447        O453   1.262       .  A
N447        O454   1.262       .  A
C457        C458   1.402       .  A
C457        C462   1.399       .  A
C457        H467   1.085       .  S
C458        C463   1.475       .  S
C458        C459   1.407       .  A
C459        C460   1.402       .  A
C459        N464   1.429       .  S
C460        C461   1.403       .  A
C460        H465   1.084       .  S
C461        C462   1.408       .  A
C462        N466   1.430       .  S
C463        C468   1.408       .  A
C463        C472   1.403       .  A
N464        O479   1.261       .  A
N464        O480   1.262       .  A
N466        O477   1.262       .  A
N466        O478   1.262       .  A
C468        C469   1.392       .  A
C468        N473   1.430       .  S
C469        C470   1.401       .  A
C469        H474   1.090       .  S
C470        C471   1.413       .  A
C471        C472   1.407       .  A
C471        N475   1.428       .  S
C472        H476   1.087       .  S
N473        O483   1.262       .  A
N473        O484   1.262       .  A
N475        O481   1.262       .  A
N475        O482   1.262       .  A
C485        C486   1.404       .  A
C485        C490   1.407       .  A
C485        H495   1.084       .  S
C486        C491   1.475       .  S
C486        C487   1.401       .  A
C487        C488   1.393       .  A
C487        N492   1.429       .  S
C488        C489   1.411       .  A
C488        H493   1.084       .  S
C489        C490   1.414       .  A
C490        N494   1.428       .  S
C491        C496   1.407       .  A
C491        C500   1.399       .  A
N492        O507   1.262       .  A
N492        O508   1.262       .  A
N494        O505   1.262       .  A
N494        O506   1.262       .  A
C496        C497   1.403       .  A
C496        N501   1.428       .  S
C497        C498   1.406       .  A
C497        H502   1.084       .  S
C498        C499   1.414       .  A
C499        C500   1.397       .  A
C499        N503   1.430       .  S
C500        H504   1.085       .  S
N501        O511   1.262       .  A
N501        O512   1.262       .  A
N503        O509   1.262       .  A
N503        O510   1.262       .  A
C513        C514   1.396       .  A
C513        C518   1.398       .  A
C513        H523   1.085       .  S
C514        C519   1.476       .  S
C514        C515   1.412       .  A
C515        C516   1.402       .  A
C515        N520   1.433       .  S
C516        C517   1.401       .  A
C516        H521   1.085       .  S
C517        C518   1.414       .  A
C518        N522   1.432       .  S
C519        C524   1.402       .  A
C519        C528   1.404       .  A
N520        O535   1.262       .  A
N520        O536   1.262       .  A
N522        O533   1.262       .  A
N522        O534   1.262       .  A
C524        C525   1.393       .  A
C524        N529   1.431       .  S
C525        C526   1.410       .  A
C525        H530   1.084       .  S
C526        C527   1.414       .  A
C527        C528   1.405       .  A
C527        N531   1.431       .  S
C528        H532   1.084       .  S
N529        O539   1.262       .  A
N529        O540   1.262       .  A
N531        O537   1.262       .  A
N531        O538   1.262   1_556  A
C541        C542   1.411       .  A
C541        C546   1.413       .  A
C541        H551   1.084       .  S
C542        C547   1.495   1_655  S
C542        C543   1.406       .  A
C543        C544   1.395       .  A
C543        N548   1.431       .  S
C544        C545   1.411       .  A
C544        H549   1.083       .  S
C545        C546   1.412       .  A
C546        N550   1.427       .  S
C547        C552   1.408       .  A
C547        C556   1.407       .  A
N548        O563   1.262       .  A
N548        O564   1.262       .  A
N550        O561   1.262       .  A
N550        O562   1.262       .  A
C552        C553   1.403       .  A
C552        N557   1.429       .  S
C553        C554   1.411       .  A
C553        H558   1.084       .  S
C554        C555   1.415       .  A
C555        C556   1.405       .  A
C555        N559   1.429       .  S
C556        H560   1.084   1_455  S
N557        O567   1.262       .  A
N557        O568   1.262       .  A
N559        O565   1.262       .  A
N559        O566   1.262       .  A
C569        C570   1.402       .  A
C569        C574   1.403       .  A
C569        H579   1.084       .  S
C570        C575   1.481       .  S
C570        C571   1.404       .  A
C571        C572   1.401       .  A
C571        N576   1.429       .  S
C572        C573   1.411       .  A
C572        H577   1.084       .  S
C573        C574   1.416       .  A
C574        N578   1.428       .  S
C575        C580   1.406       .  A
C575        C584   1.402       .  A
N576        O591   1.262       .  A
N576        O592   1.262       .  A
N578        O589   1.262       .  A
N578        O590   1.262       .  A
C580        C581   1.399       .  A
C580        N585   1.429       .  S
C581        C582   1.408       .  A
C581        H586   1.084       .  S
C582        C583   1.415       .  A
C583        C584   1.405       .  A
C583        N587   1.429       .  S
C584        H588   1.084       .  S
N585        O595   1.262       .  A
N585        O596   1.262       .  A
N587        O593   1.262       .  A
N587        O594   1.262       .  A
C597        C598   1.402       .  A
C597        C602   1.404       .  A
C597        H607   1.084       .  S
C598        C603   1.497       .  S
C598        C599   1.417       .  A
C599        C600   1.403       .  A
C599        N604   1.430       .  S
C600        C601   1.402       .  A
C600        H605   1.084       .  S
C601        C602   1.419       .  A
C602        N606   1.430       .  S
C603        C608   1.415       .  A
C603        C612   1.400       .  A
N604        O619   1.262       .  A
N604        O620   1.262       .  A
N606        O617   1.262       .  A
N606        O618   1.262       .  A
C608        C609   1.410       .  A
C608        N613   1.429       .  S
C609        C610   1.407       .  A
C609        H614   1.084       .  S
C610        C611   1.418       .  A
C611        C612   1.397       .  A
C611        N615   1.431       .  S
C612        H616   1.085       .  S
N613        O623   1.262       .  A
N613        O624   1.262       .  A
N615        O621   1.262       .  A
N615        O622   1.262       .  A
C625        C626   1.402       .  A
C625        C630   1.405       .  A
C625        H635   1.084       .  S
C626        C631   1.484       .  S
C626        C627   1.410       .  A
C627        C628   1.400       .  A
C627        N632   1.431       .  S
C628        C629   1.405       .  A
C628        H633   1.085       .  S
C629        C630   1.413       .  A
C630        N634   1.428       .  S
C631        C636   1.412       .  A
C631        C640   1.398       .  A
N632        O647   1.262       .  A
N632        O648   1.262       .  A
N634        O645   1.262       .  A
N634        O646   1.262       .  A
C636        C637   1.405       .  A
C636        N641   1.428       .  S
C637        C638   1.402       .  A
C637        H642   1.084       .  S
C638        C639   1.415       .  A
C639        C640   1.400       .  A
C639        N643   1.430       .  S
C640        H644   1.084       .  S
N641        O651   1.262       .  A
N641        O652   1.261       .  A
N643        O649   1.262       .  A
N643        O650   1.261       .  A
C653        C654   1.404       .  A
C653        C658   1.401       .  A
C653        H663   1.084       .  S
C654        C659   1.479       .  S
C654        C655   1.410       .  A
C655        C656   1.399       .  A
C655        N660   1.431       .  S
C656        C657   1.401       .  A
C656        H661   1.085       .  S
C657        C658   1.406       .  A
C658        N662   1.428       .  S
C659        C664   1.412       .  A
C659        C668   1.401       .  A
N660        O675   1.262       .  A
N660        O676   1.262       .  A
N662        O673   1.262       .  A
N662        O674   1.262       .  A
C664        C665   1.402       .  A
C664        N669   1.430       .  S
C665        C666   1.403       .  A
C665        H670   1.085       .  S
C666        C667   1.410       .  A
C667        C668   1.398       .  A
C667        N671   1.429       .  S
C668        H672   1.084       .  S
N669        O679   1.262       .  A
N669        O680   1.262       .  A
N671        O677   1.262       .  A
N671        O678   1.262       .  A
C681        C682   1.404       .  A
C681        C686   1.404       .  A
C681        H691   1.084       .  S
C682        C687   1.488   1_545  S
C682        C683   1.410       .  A
C683        C684   1.403       .  A
C683        N688   1.430       .  S
C684        C685   1.408       .  A
C684        H689   1.085       .  S
C685        C686   1.413       .  A
C686        N690   1.429       .  S
C687        C692   1.408       .  A
C687        C696   1.405       .  A
N688        O703   1.262       .  A
N688        O704   1.262       .  A
N690        O701   1.262       .  A
N690        O702   1.262       .  A
C692        C693   1.401       .  A
C692        N697   1.431       .  S
C693        C694   1.410       .  A
C693        H698   1.084       .  S
C694        C695   1.412       .  A
C695        C696   1.406       .  A
C695        N699   1.428       .  S
C696        H700   1.084       .  S
N697        O707   1.262       .  A
N697        O708   1.262       .  A
N699        O705   1.262       .  A
N699        O706   1.262       .  A
C709        C710   1.400       .  A
C709        C714   1.398       .  A
C709        H719   1.085   1_554  S
C710        C715   1.482       .  S
C710        C711   1.410       .  A
C711        C712   1.405       .  A
C711        N716   1.429       .  S
C712        C713   1.407       .  A
C712        H717   1.084       .  S
C713        C714   1.414       .  A
C714        N718   1.428   1_554  S
C715        C720   1.410       .  A
C715        C724   1.400   1_554  A
N716        O731   1.262       .  A
N716        O732   1.262       .  A
N718        O729   1.261       .  A
N718        O730   1.261       .  A
C720        C721   1.404   1_554  A
C720        N725   1.430       .  S
C721        C722   1.408       .  A
C721        H726   1.084   1_556  S
C722        C723   1.417       .  A
C723        C724   1.399       .  A
C723        N727   1.429       .  S
C724        H728   1.084       .  S
N725        O735   1.262       .  A
N725        O736   1.262       .  A
N727        O733   1.262       .  A
N727        O734   1.262       .  A
C737        C738   1.401       .  A
C737        C742   1.401   1_556  A
C737        H747   1.084       .  S
C738        C743   1.480       .  S
C738        C739   1.412   1_556  A
C739        C740   1.398       .  A
C739        N744   1.433       .  S
C740        C741   1.404       .  A
C740        H745   1.084       .  S
C741        C742   1.413       .  A
C742        N746   1.428       .  S
C743        C748   1.408       .  A
C743        C752   1.403       .  A
N744        O759   1.262   1_554  A
N744        O760   1.262       .  A
N746        O757   1.262       .  A
N746        O758   1.261   1_554  A
C748        C749   1.397       .  A
C748        N753   1.431   1_556  S
C749        C750   1.404       .  A
C749        H754   1.085       .  S
C750        C751   1.411       .  A
C751        C752   1.403       .  A
C751        N755   1.428       .  S
C752        H756   1.084       .  S
N753        O763   1.262       .  A
N753        O764   1.261       .  A
N755        O761   1.262       .  A
N755        O762   1.262       .  A
C765        C766   1.401       .  A
C765        C770   1.398       .  A
C765        H775   1.085       .  S
C766        C771   1.483       .  S
C766        C767   1.408       .  A
C767        C768   1.408       .  A
C767        N772   1.428       .  S
C768        C769   1.407       .  A
C768        H773   1.084       .  S
C769        C770   1.410       .  A
C770        N774   1.428       .  S
C771        C776   1.409       .  A
C771        C780   1.403       .  A
N772        O787   1.262       .  A
N772        O788   1.262       .  A
N774        O785   1.262       .  A
N774        O786   1.262       .  A
C776        C777   1.404       .  A
C776        N781   1.428       .  S
C777        C778   1.403       .  A
C777        H782   1.084       .  S
C778        C779   1.409       .  A
C779        C780   1.402       .  A
C779        N783   1.428       .  S
C780        H784   1.084       .  S
N781        O791   1.262       .  A
N781        O792   1.262       .  A
N783        O789   1.262       .  A
N783        O790   1.261       .  A
C793        C794   1.400       .  A
C793        C798   1.402       .  A
C793        H803   1.085       .  S
C794        C799   1.493       .  S
C794        C795   1.415       .  A
C795        C796   1.405       .  A
C795        N800   1.429       .  S
C796        C797   1.402       .  A
C796        H801   1.084       .  S
C797        C798   1.420       .  A
C798        N802   1.430       .  S
C799        C804   1.415       .  A
C799        C808   1.400       .  A
N800        O815   1.262       .  A
N800        O816   1.262       .  A
N802        O813   1.262       .  A
N802        O814   1.262       .  A
C804        C805   1.410       .  A
C804        N809   1.430       .  S
C805        C806   1.406       .  A
C805        H810   1.084       .  S
C806        C807   1.418       .  A
C807        C808   1.398       .  A
C807        N811   1.431       .  S
C808        H812   1.085       .  S
N809        O819   1.262       .  A
N809        O820   1.262       .  A
N811        O817   1.262       .  A
N811        O818   1.262       .  A
C821        C822   1.405       .  A
C821        C826   1.408       .  A
C821        H831   1.084       .  S
C822        C827   1.490       .  S
C822        C823   1.408       .  A
C823        C824   1.403       .  A
C823        N828   1.429       .  S
C824        C825   1.409       .  A
C824        H829   1.084       .  S
C825        C826   1.413       .  A
C826        N830   1.428       .  S
C827        C832   1.412       .  A
C827        C836   1.402       .  A
N828        O843   1.262       .  A
N828        O844   1.262       .  A
N830        O841   1.262       .  A
N830        O842   1.261       .  A
C832        C833   1.408       .  A
C832        N837   1.429       .  S
C833        C834   1.405       .  A
C833        H838   1.084       .  S
C834        C835   1.413       .  A
C835        C836   1.402       .  A
C835        N839   1.430       .  S
C836        H840   1.085       .  S
N837        O847   1.262       .  A
N837        O848   1.262       .  A
N839        O845   1.261       .  A
N839        O846   1.262       .  A
