geometry optimzed in LAMMPS
_audit_creation_date              2020-11-30 
_audit_creation_method            'lammps2cif' 
_symmetry_space_group_name_H-M    'P1' 
_symmetry_Int_Tables_number       1 
_symmetry_cell_setting            triclinic 
loop_ 
_symmetry_equiv_pos_as_xyz 
  x,y,z 
_cell_length_a                    52.60304320080129 
_cell_length_b                    53.11320985868015 
_cell_length_c                    23.623841522026233 
_cell_angle_alpha                 89.96038193904893 
_cell_angle_beta                  90.56749528186913 
_cell_angle_gamma                 122.21859597469087 
loop_ 
_atom_site_label 
_atom_site_type_symbol 
_atom_site_fract_x 
_atom_site_fract_y 
_atom_site_fract_z 
_atom_site_charge 
Zr1        Zr  0.67203563  0.55972207  0.49064371     2.17510
O2          O  0.71259048  0.59777599  0.43302072    -0.52110
O3          O  0.64859056  0.52352640  0.41142366    -0.75310
O4          O  0.71721636  0.55597046  0.49356857    -0.82100
O5          O  0.63056969  0.60172972  0.48690590    -0.83840
O6          O  0.71807132  0.53418982  0.57686459    -0.79470
O7          O  0.65460593  0.58791211  0.42875936    -0.91100
O8          O  0.62940878  0.48071750  0.45749043    -0.77060
O9          O  0.65898911  0.51431579  0.53994291    -0.86550
O10         O  0.61863406  0.53086304  0.49411055    -0.86240
O11         O  0.69301571  0.56953231  0.58711204    -0.73000
O12         O  0.65980370  0.58943328  0.54679285    -0.85140
Zr13       Zr  0.61355703  0.52608610  0.68913576     2.26420
Zr14       Zr  0.67757952  0.52339746  0.63753999     2.06270
Zr15       Zr  0.60583932  0.55999781  0.54920161     2.10050
Zr16       Zr  0.60595074  0.48551191  0.53964150     1.78760
O17         O  0.58090548  0.58620275  0.57297669    -0.93940
O18         O  0.61107992  0.44307762  0.55635675    -0.41750
O19         O  0.59292523  0.51490400  0.59395568    -0.78380
O20         O  0.62491996  0.49503998  0.63464825    -0.97070
O21         O  0.66671768  0.55438392  0.68998722    -0.90370
O22         O  0.62802772  0.57236187  0.64168770    -0.93210
C23         C  0.63260257  0.49488278  0.41215570     1.00540
C24         C  0.64018518  0.60143420  0.43784235     1.13470
C25         C  0.72887743  0.54608052  0.52893973     1.04250
O26         O  0.69095238  0.48603061  0.63966835    -0.95370
O27         O  0.65081107  0.48608629  0.71795159    -0.91110
O28         O  0.62916106  0.50642822  0.76455599    -0.84260
C29         C  0.63320374  0.48503121  0.75767629     1.10890
O30         O  0.72834590  0.63961142  0.60296842    -0.97340
Zr31       Zr  0.68097627  0.59954597  0.64151396     1.88940
O32         O  0.62324622  0.56432241  0.75946334    -0.73990
O33         O  0.71783350  0.55182356  0.70622717    -0.53250
O34         O  0.72284953  0.61346188  0.70622964    -0.97930
O35         O  0.68037570  0.64469728  0.62720642    -0.55150
O36         O  0.66366801  0.60847191  0.73101838    -0.74510
C37         C  0.64178460  0.59269828  0.76495316     0.97840
O38         O  0.57127851  0.47584245  0.66204829    -0.63330
O39         O  0.56281057  0.53152422  0.48555119    -0.58130
O40         O  0.56740820  0.52032102  0.71679240    -0.94810
O41         O  0.58229865  0.53973380  0.63606948    -0.93240
O42         O  0.56590657  0.47007013  0.46955071    -0.93600
O43         O  0.55784010  0.44029325  0.56104396    -0.92380
C44         C  0.56090823  0.52708799  0.66997058     1.16680
H45         H  0.60918550  0.52732325  0.45741330     0.32620
H46         H  0.61728681  0.47534774  0.64894246     0.43470
H47         H  0.62236416  0.58485653  0.66036065     0.37000
H48         H  0.71468708  0.58111187  0.58484539     0.33480
H49         H  0.60149392  0.42996326  0.52294627     0.25270
H50         H  0.72220315  0.53724972  0.72206162     0.31210
H51         H  0.72524728  0.63046708  0.72824942     0.37120
H52         H  0.56517154  0.45365251  0.44820520     0.31580
H53         H  0.54799290  0.53671173  0.49606559     0.30450
H54         H  0.55971036  0.57035647  0.57977490     0.32130
H55         H  0.68839431  0.65612370  0.66296562     0.31100
H56         H  0.56131583  0.43113089  0.59430683     0.35100
H57         H  0.55209951  0.47182541  0.67704747     0.27830
H58         H  0.71806605  0.58687821  0.40691618     0.32070
H59         H  0.73624267  0.65621422  0.63058247     0.34920
H60         H  0.56984157  0.53998504  0.44740118     0.27530
H61         H  0.57362840  0.46017502  0.67889652     0.40400
H62         H  0.67259497  0.46747594  0.62653370     0.30450
H63         H  0.63278924  0.45109134  0.55198620     0.38070
H64         H  0.65882730  0.63794954  0.62678501     0.29920
H65         H  0.73560049  0.56526161  0.68303998     0.29980
H66         H  0.73002609  0.60872183  0.45914846     0.30250
Zr67       Zr  0.55722506  0.67469387  0.18541920     2.17510
O68         O  0.58784398  0.71382012  0.25442427    -0.52110
O69         O  0.51662705  0.64800130  0.25733210    -0.75310
O70         O  0.55276543  0.71868026  0.17672871    -0.82100
O71         O  0.59493508  0.62877750  0.21610217    -0.83840
O72         O  0.53055199  0.71713315  0.09179886    -0.79470
O73         O  0.58988822  0.66556108  0.25179505    -0.91100
O74         O  0.47675664  0.63085952  0.20178081    -0.77060
O75         O  0.51190640  0.65883791  0.13150607    -0.86550
O76         O  0.53224655  0.62212032  0.17970768    -0.86240
O77         O  0.56891531  0.69501805  0.08927006    -0.73000
O78         O  0.59188051  0.66667767  0.13442220    -0.85140
Zr79       Zr  0.53337931  0.61781720  0.98490064     2.26420
Zr80       Zr  0.52264831  0.67652975  0.03445748     2.06270
Zr81       Zr  0.56679880  0.61354951  0.13042707     2.10050
Zr82       Zr  0.48652287  0.60661659  0.12811616     1.78760
O83         O  0.61545790  0.61919658  0.11747947    -0.93940
O84         O  0.44648263  0.61292542  0.09131070    -0.41750
O85         O  0.52038324  0.59821274  0.07918665    -0.78380
O86         O  0.49744960  0.62388187  0.03342897    -0.97070
O87         O  0.55806524  0.67012445  0.98482877    -0.90370
O88         O  0.57916218  0.63435580  0.03639505    -0.93210
C89         C  0.48779502  0.63304823  0.25040680     1.00540
C90         C  0.59982385  0.64765827  0.25438107     1.13470
C91         C  0.54244375  0.72902848  0.13961338     1.04250
O92         O  0.48257596  0.68651136  0.02889786    -0.95370
O93         O  0.48621375  0.65042313  0.95314257    -0.91110
O94         O  0.49570083  0.61588424  0.92173467    -0.84260
C95         C  0.48089564  0.62870886  0.91950346     1.10890
O96         O  0.63968892  0.73570996  0.07891085    -0.97340
Zr97       Zr  0.60330817  0.68679007  0.03922639     1.88940
O98         O  0.57553465  0.63127814  0.92392813    -0.73990
O99         O  0.55033894  0.71626966  0.96640695    -0.53250
O100        O  0.61556910  0.72659129  0.97240853    -0.97930
O101        O  0.65015966  0.69039066  0.06473652    -0.55150
O102        O  0.61891075  0.67206381  0.95398301    -0.74510
C103        C  0.60388464  0.65022905  0.91927811     0.97840
O104        O  0.51502159  0.57875905  0.91255010    -0.63330
O105        O  0.54246096  0.56943964  0.19024837    -0.58130
O106        O  0.53254352  0.58587513  0.05465504    -0.94810
O107        O  0.56046147  0.57049305  0.08193111    -0.93240
O108        O  0.47215995  0.56671081  0.19595833    -0.93600
O109        O  0.44225212  0.55668795  0.11412077    -0.92380
C110        C  0.54205918  0.56904832  0.04584109     1.16680
H111        H  0.52834921  0.61312794  0.21666430     0.32620
H112        H  0.47782248  0.61266352  0.01637812     0.43470
H113        H  0.59158241  0.62800300  0.02007967     0.37000
H114        H  0.57933079  0.71642320  0.09154687     0.33480
H115        H  0.42683254  0.59519546  0.10104143     0.25270
H116        H  0.53527940  0.72024005  0.95082516     0.31210
H117        H  0.63321398  0.72955908  0.95162014     0.36280
H118        H  0.48400947  0.55795125  0.18533298     0.31580
H119        H  0.55760196  0.56393742  0.19531355     0.30450
H120        H  0.61461047  0.60313797  0.14034353     0.32130
H121        H  0.66475376  0.70362740  0.03595640     0.31100
H122        H  0.43333353  0.55695319  0.07721874     0.35100
H123        H  0.52044368  0.58917295  0.87586717     0.27830
H124        H  0.57375250  0.71743225  0.27496593     0.32070
H125        H  0.65698600  0.74481719  0.05290923     0.34920
H126        H  0.54106504  0.57654948  0.22811444     0.27530
H127        H  0.49281740  0.56796316  0.91263575     0.40400
H128        H  0.46976858  0.67619173  0.06191873     0.30450
H129        H  0.44767393  0.62927556  0.11365379     0.38070
H130        H  0.64653447  0.67050616  0.05598604     0.29920
H131        H  0.56391453  0.73403197  0.98985736     0.29980
H132        H  0.60061091  0.73208510  0.23214954     0.30250
Zr133      Zr  0.14669953  0.66719255  0.83575316     2.17510
O134        O  0.15674306  0.70849663  0.77473661    -0.52110
O135        O  0.16605088  0.64652261  0.76945008    -0.75310
O136        O  0.19931839  0.70817823  0.84349444    -0.82100
O137        O  0.06145867  0.61575029  0.79468558    -0.83840
O138        O  0.22088704  0.69944721  0.91891805    -0.79470
O139        O  0.10475263  0.65588814  0.76314840    -0.91100
O140        O  0.18689724  0.62814602  0.82455080    -0.77060
O141        O  0.17571063  0.65314391  0.89234374    -0.86550
O142        O  0.11831664  0.61429494  0.83786232    -0.86240
O143        O  0.15724025  0.68894231  0.93067860    -0.73000
O144        O  0.10141066  0.65559049  0.88134629    -0.85140
Zr145      Zr  0.10775627  0.60970722  0.03045553     2.26420
Zr146      Zr  0.18317065  0.67100795  0.98878717     2.06270
Zr147      Zr  0.07248786  0.60208685  0.88344545     2.10050
Zr148      Zr  0.14825409  0.60116209  0.89287751     1.78760
O149        O  0.02516793  0.59937253  0.89463764    -0.93940
O150        O  0.19288419  0.60311315  0.92924309    -0.41750
O151        O  0.10313596  0.58930214  0.93767493    -0.78380
O152        O  0.15316693  0.61825865  0.98829453    -0.97070
O153        O  0.13841131  0.66213002  0.03235401    -0.90370
O154        O  0.08022459  0.62483809  0.97524775    -0.93210
C155        C  0.18122708  0.63414159  0.77590377     1.00540
C156        C  0.07578846  0.63607886  0.75813479     1.13470
C157        C  0.22221412  0.71328755  0.87357079     1.04250
O158        O  0.23418013  0.68618873  0.01636100    -0.95370
O159        O  0.19159865  0.64682809  0.07392839    -0.91110
O160        O  0.14396718  0.61206651  0.09626250    -0.84260
C161        C  0.17224270  0.62521501  0.10576108     1.10890
O162        O  0.12855894  0.72636340  0.93378651    -0.97340
Zr163      Zr  0.11157798  0.67770061  0.97444893     1.88940
O164        O  0.07681266  0.62124555  0.08986660    -0.73990
O165        O  0.19540589  0.71519411  0.04285237    -0.53250
O166        O  0.13782912  0.71629943  0.04642301    -0.97930
O167        O  0.07014272  0.68259775  0.94314943    -0.55150
O168        O  0.07814832  0.66175878  0.05461896    -0.74510
C169        C  0.06874168  0.64031967  0.08984525     0.97840
O170        O  0.08265596  0.57053858  0.10034282    -0.63330
O171        O  0.05496918  0.55844238  0.82367991    -0.58130
O172        O  0.07841691  0.57185438  0.96224222    -0.94810
O173        O  0.03431249  0.55799401  0.93267448    -0.93240
O174        O  0.12560598  0.56350468  0.81838452    -0.93600
O175        O  0.14146977  0.55325323  0.91550574    -0.92380
C176        C  0.05040561  0.55469142  0.96778195     1.16680
H177        H  0.11425563  0.60592142  0.80016385     0.32620
H178        H  0.16167820  0.60818949  0.00670960     0.43470
H179        H  0.06048787  0.61776917  0.98972808     0.37000
H180        H  0.16998873  0.71035262  0.92776767     0.33480
H181        H  0.19935735  0.59536141  0.89818051     0.25270
H182        H  0.21321876  0.71990285  0.06603238     0.31210
H183        H  0.12255463  0.72000720  0.06112829     0.37120
H184        H  0.14279861  0.56583194  0.79690025     0.31580
H185        H  0.06229307  0.56613483  0.78521034     0.30450
H186        H  0.01052136  0.58216202  0.87105676     0.32130
H187        H  0.06382718  0.68854741  0.97733887     0.31100
H188        H  0.14461423  0.55379074  0.95701719     0.35100
H189        H  0.09651021  0.56393037  0.10971579     0.27830
H190        H  0.17316063  0.71169116  0.74963621     0.32070
H191        H  0.12050891  0.73550836  0.95848201     0.34920
H192        H  0.06710293  0.55021153  0.83626442     0.27530
H193        H  0.08114717  0.57995414  0.13511575     0.40400
H194        H  0.23799248  0.67213234  0.99644331     0.30450
H195        H  0.20858031  0.62460469  0.93137742     0.38070
H196        H  0.05344883  0.66196852  0.93501528     0.29920
H197        H  0.20313631  0.73137567  0.01463704     0.29980
H198        H  0.16591146  0.72624026  0.79978692     0.30250
Zr199      Zr  0.90880376  0.55929077  0.52150813     2.17510
O200        O  0.91284064  0.59386473  0.59423890    -0.52110
O201        O  0.89044841  0.51835173  0.58982169    -0.75310
O202        O  0.86139723  0.55803768  0.53392305    -0.82100
O203        O  0.99228051  0.58227548  0.53220482    -0.83840
O204        O  0.83467740  0.54121010  0.45108971    -0.79470
O205        O  0.95769025  0.58760314  0.57731410    -0.91100
O206        O  0.86158212  0.47633601  0.53997387    -0.77060
O207        O  0.86959373  0.51816899  0.46781705    -0.86550
O208        O  0.92609457  0.52659421  0.50451565    -0.86240
O209        O  0.89897480  0.57694193  0.43376151    -0.73000
O210        O  0.95269547  0.58801970  0.46490498    -0.85140
Zr211      Zr  0.92136295  0.53440137  0.30261707     2.26420
Zr212      Zr  0.86133502  0.53473251  0.37819576     2.06270
Zr213      Zr  0.96856752  0.55420266  0.44536577     2.10050
Zr214      Zr  0.88683055  0.48598812  0.45128698     1.78760
O215        O  0.02252206  0.58312818  0.43085045    -0.93940
O216        O  0.83348123  0.44976170  0.43569747    -0.41750
O217        O  0.92879583  0.51398713  0.39151783    -0.78380
O218        O  0.87980758  0.50279853  0.36246493    -0.97070
O219        O  0.90410650  0.56648498  0.32167581    -0.90370
O220        O  0.96193391  0.57502301  0.36010189    -0.93210
C221        C  0.87200787  0.48995429  0.58670554     1.00540
C222        C  0.98464335  0.59233370  0.57377504     1.13470
C223        C  0.83804374  0.54997494  0.50232123     1.04250
O224        O  0.80672933  0.50752690  0.37136820    -0.95370
O225        O  0.83795870  0.49729894  0.30113338    -0.91110
O226        O  0.87708991  0.51891646  0.24312641    -0.84260
C227        C  0.85052778  0.49735844  0.25468220     1.10890
O228        O  0.94164022  0.64591547  0.42639492    -0.97340
Zr229      Zr  0.94329698  0.60616953  0.37834632     1.88940
O230        O  0.95712966  0.57695320  0.24500451    -0.73990
O231        O  0.85795694  0.57112827  0.32155425    -0.53250
O232        O  0.92225777  0.62781505  0.31750950    -0.97930
O233        O  0.99239980  0.64705863  0.41022380    -0.55150
O234        O  0.97325759  0.62030052  0.29219598    -0.74510
C235        C  0.97444218  0.60537849  0.25059239     0.97840
O236        O  0.91293268  0.49679995  0.23235981    -0.63330
O237        O  0.98303118  0.51968578  0.47601447    -0.58130
O238        O  0.95331044  0.51887234  0.26711901    -0.94810
O239        O  0.96037518  0.53779112  0.34958599    -0.93240
O240        O  0.91208960  0.46396766  0.49728149    -0.93600
O241        O  0.87698100  0.43902957  0.41295134    -0.92380
C242        C  0.96758460  0.52554868  0.31301055     1.16680
H243        H  0.93180614  0.52059385  0.53855455     0.32620
H244        H  0.86741084  0.48407313  0.34330963     0.43470
H245        H  0.98171295  0.58713937  0.34375692     0.37000
H246        H  0.89138755  0.58943822  0.44277404     0.33480
H247        H  0.82774530  0.43380371  0.46374971     0.25270
H248        H  0.84205246  0.55909046  0.29307092     0.31210
H249        H  0.93982414  0.64501208  0.29929172     0.37120
H250        H  0.91166228  0.46752676  0.53831121     0.31580
H251        H  0.97801423  0.51645781  0.51672046     0.30450
H252        H  0.03065228  0.57487772  0.45803589     0.32130
H253        H  0.00068821  0.66069620  0.37759179     0.31100
H254        H  0.87253657  0.43954738  0.37232002     0.35100
H255        H  0.90744651  0.50223155  0.19618540     0.27830
H256        H  0.89648390  0.58171240  0.62123898     0.32070
H257        H  0.95350714  0.66390133  0.40290319     0.34920
H258        H  0.96820862  0.50054253  0.45760681     0.27530
H259        H  0.89453662  0.47814944  0.24441723     0.40400
H260        H  0.79985385  0.48798990  0.38890321     0.30450
H261        H  0.82316653  0.45982492  0.44815685     0.38070
H262        H  0.00487109  0.63824546  0.41352903     0.29920
H263        H  0.84884470  0.57887254  0.34711770     0.29980
H264        H  0.90706071  0.60674372  0.57532209     0.30250
Zr265      Zr  0.65784166  0.14577320  0.82260544     2.17510
O266        O  0.69481282  0.14709493  0.88705725    -0.52110
O267        O  0.62817962  0.15488635  0.89127489    -0.75310
O268        O  0.69820522  0.19885433  0.83773158    -0.82100
O269        O  0.60900637  0.05966542  0.83596011    -0.83840
O270        O  0.70311670  0.22469060  0.75719756    -0.79470
O271        O  0.64130298  0.10088306  0.88719802    -0.91100
O272        O  0.60397653  0.17095132  0.83814453    -0.77060
O273        O  0.64397693  0.17672731  0.77308131    -0.86550
O274        O  0.60523925  0.11356662  0.80569431    -0.86240
O275        O  0.68440186  0.16283292  0.73219195    -0.73000
O276        O  0.65657610  0.10824390  0.76189265    -0.85140
Zr277      Zr  0.61698523  0.12582958  0.60638850     2.26420
Zr278      Zr  0.66932636  0.19320735  0.68287631     2.06270
Zr279      Zr  0.60422789  0.07755090  0.74482518     2.10050
Zr280      Zr  0.59267760  0.14368875  0.75257659     1.78760
O281        O  0.61367749  0.03826871  0.72544686    -0.93940
O282        O  0.58927664  0.18760952  0.74398773    -0.41750
O283        O  0.61878011  0.12471108  0.70706494    -0.78380
O284        O  0.61648264  0.16174987  0.66458740    -0.97070
O285        O  0.66893922  0.15748787  0.61978927    -0.90370
O286        O  0.62756438  0.09214406  0.65376463    -0.93210
C287        C  0.61104422  0.16533145  0.88567882     1.00540
C288        C  0.62313583  0.07200411  0.88210847     1.13470
C289        C  0.71065945  0.22313375  0.80825171     1.04250
O290        O  0.67674617  0.24238631  0.67925904    -0.95370
O291        O  0.64644804  0.20743727  0.60580972    -0.91110
O292        O  0.62627793  0.16768935  0.54730571    -0.84260
C293        C  0.63167314  0.19351851  0.56041307     1.10890
O294        O  0.72938886  0.13993232  0.70893705    -0.97340
Zr295      Zr  0.68029022  0.12468478  0.66920297     1.88940
O296        O  0.63114971  0.10083582  0.53930004    -0.73990
O297        O  0.71540191  0.21461723  0.62877371    -0.53250
O298        O  0.72200285  0.15847502  0.60889053    -0.97930
O299        O  0.68774353  0.08381673  0.68655491    -0.55150
O300        O  0.66661332  0.09503148  0.57979097    -0.74510
C301        C  0.64739447  0.08950747  0.53967306     0.97840
O302        O  0.57825205  0.11064683  0.53384061    -0.63330
O303        O  0.55163104  0.04541511  0.77071561    -0.58130
O304        O  0.56949924  0.09831699  0.64732556    -0.94810
O305        O  0.56175421  0.05669762  0.68365080    -0.93240
O306        O  0.54562199  0.09913863  0.78048430    -0.93600
O307        O  0.54526150  0.12642052  0.70340776    -0.92380
C308        C  0.55705109  0.07063955  0.64538763     1.16680
H309        H  0.59380094  0.10510546  0.83981461     0.32620
H310        H  0.60505243  0.16920405  0.64805865     0.43470
H311        H  0.62222678  0.07421592  0.63400909     0.37000
H312        H  0.70554768  0.17555667  0.74117398     0.33480
H313        H  0.57464710  0.18577648  0.77217419     0.25270
H314        H  0.72010287  0.23471798  0.61842726     0.31210
H315        H  0.72532901  0.14531762  0.58463761     0.37120
H316        H  0.54659787  0.09808500  0.82223591     0.31580
H317        H  0.54945471  0.02630244  0.78120063     0.30450
H318        H  0.59349600  0.01974620  0.72566110     0.32130
H319        H  0.70134540  0.08538111  0.65619898     0.31100
H320        H  0.54940584  0.14268235  0.67719521     0.35100
H321        H  0.57120784  0.12440213  0.53926414     0.27830
H322        H  0.69659553  0.16018577  0.91857510     0.32070
H323        H  0.72679263  0.13983500  0.75040723     0.34920
H324        H  0.54979695  0.05355250  0.80699022     0.27530
H325        H  0.58931568  0.11732608  0.49778766     0.40400
H326        H  0.65926651  0.24021081  0.69945689     0.30450
H327        H  0.60895580  0.20472956  0.75689857     0.38070
H328        H  0.66817499  0.06563860  0.67678073     0.29920
H329        H  0.73104019  0.21826665  0.65707437     0.29980
H330        H  0.71406514  0.15809934  0.86649672     0.30250
Zr331      Zr  0.55942203  0.90831147  0.12931577     2.17510
O332        O  0.59725811  0.91124696  0.06618293    -0.52110
O333        O  0.51610864  0.88381799  0.06396808    -0.75310
O334        O  0.55596384  0.86010953  0.12439566    -0.82100
O335        O  0.57965747  0.98996100  0.10158059    -0.83840
O336        O  0.53976941  0.83743530  0.21035461    -0.79470
O337        O  0.57989481  0.95182776  0.05865605    -0.91100
O338        O  0.47873211  0.85483104  0.12236129    -0.77060
O339        O  0.51861957  0.87204069  0.18735056    -0.86550
O340        O  0.52602646  0.92527865  0.13904332    -0.86240
O341        O  0.57736038  0.90269348  0.22197560    -0.73000
O342        O  0.58946587  0.95435375  0.18025155    -0.85140
Zr343      Zr  0.53330726  0.92984839  0.33730253     2.26420
Zr344      Zr  0.53531656  0.86703616  0.28037562     2.06270
Zr345      Zr  0.55513969  0.97068931  0.18988945     2.10050
Zr346      Zr  0.48525495  0.88865950  0.19601213     1.78760
O347        O  0.58618945  0.02465192  0.19794161    -0.93940
O348        O  0.44712413  0.84011180  0.23441241    -0.41750
O349        O  0.51450863  0.93433063  0.24522291    -0.78380
O350        O  0.50215161  0.88424862  0.28733198    -0.97070
O351        O  0.56632833  0.91270036  0.32924886    -0.90370
O352        O  0.57495617  0.96707201  0.27913895    -0.93210
C353        C  0.48833514  0.86390241  0.07299294     1.00540
C354        C  0.58495424  0.97887541  0.05888406     1.13470
C355        C  0.54754907  0.83824806  0.15904472     1.04250
O356        O  0.50453148  0.81337726  0.29338452    -0.95370
O357        O  0.50177649  0.85056216  0.36667968    -0.91110
O358        O  0.52500180  0.89433272  0.41036237    -0.84260
C359        C  0.50324766  0.86730739  0.40807438     1.10890
O360        O  0.64752087  0.94670630  0.22884729    -0.97340
Zr361      Zr  0.60702696  0.94905791  0.27258038     1.88940
O362        O  0.57434941  0.96450472  0.39968743    -0.73990
O363        O  0.57305307  0.86417209  0.33531128    -0.53250
O364        O  0.62778866  0.92949772  0.33934082    -0.97930
O365        O  0.64905218  0.99815683  0.24673472    -0.55150
O366        O  0.61887779  0.98159112  0.35703811    -0.74510
C367        C  0.60286338  0.98295769  0.39661811     0.97840
O368        O  0.48215745  0.91757378  0.35596307    -0.63330
O369        O  0.51969413  0.98363888  0.15553758    -0.58130
O370        O  0.52512653  0.96792613  0.36574219    -0.94810
O371        O  0.53715549  0.96611796  0.28137483    -0.93240
O372        O  0.46051857  0.90509158  0.13128885    -0.93600
O373        O  0.44132095  0.89007207  0.22239023    -0.92380
C374        C  0.53215616  0.97990650  0.31788617     1.16680
H375        H  0.51969788  0.92888624  0.10304669     0.32620
H376        H  0.48395112  0.87095867  0.30733942     0.43470
H377        H  0.58704090  0.98694542  0.29457269     0.37000
H378        H  0.59008342  0.89498652  0.21574324     0.33480
H379        H  0.42714407  0.83633958  0.22382597     0.25270
H380        H  0.56130551  0.84768780  0.36217726     0.31210
H381        H  0.64417890  0.94724620  0.35928328     0.37120
H382        H  0.46819614  0.90538210  0.09310288     0.31580
H383        H  0.53112884  0.99995682  0.12843889     0.30450
H384        H  0.57192858  0.03142202  0.19680761     0.32130
H385        H  0.66313225  0.00477667  0.27944881     0.31100
H386        H  0.43822783  0.88487671  0.26303290     0.35100
H387        H  0.46854093  0.89587832  0.35088811     0.27830
H388        H  0.58608504  0.89446399  0.03918332     0.32070
H389        H  0.66516290  0.95797664  0.25437426     0.34920
H390        H  0.50505726  0.96647733  0.13172492     0.27530
H391        H  0.47655260  0.92525741  0.32360420     0.40400
H392        H  0.48422782  0.80772484  0.28003801     0.30450
H393        H  0.44896039  0.82522666  0.21273796     0.38070
H394        H  0.64081767  0.01111568  0.24779231     0.29920
H395        H  0.58142302  0.85623231  0.30839964     0.29980
H396        H  0.60926241  0.90584880  0.08983554     0.30250
Zr397      Zr  0.47873216  0.12957393  0.14170452     2.17510
O398        O  0.44092012  0.12405072  0.07364435    -0.52110
O399        O  0.52104812  0.15043762  0.07596579    -0.75310
O400        O  0.48017518  0.17715069  0.13056332    -0.82100
O401        O  0.46015307  0.04820538  0.12885180    -0.83840
O402        O  0.49623507  0.20243488  0.21468831    -0.79470
O403        O  0.45753989  0.08290067  0.07814231    -0.91100
O404        O  0.56253620  0.17944190  0.12786674    -0.77060
O405        O  0.52059552  0.16812333  0.19571465    -0.86550
O406        O  0.51174223  0.11257926  0.15925527    -0.86240
O407        O  0.46175401  0.13867070  0.23109456    -0.73000
O408        O  0.44966227  0.08636025  0.19964214    -0.85140
Zr409      Zr  0.50531659  0.11690342  0.36211588     2.26420
Zr410      Zr  0.50488044  0.17634005  0.28590191     2.06270
Zr411      Zr  0.48387601  0.07058570  0.21839718     2.10050
Zr412      Zr  0.55322207  0.15110736  0.21232825     1.78760
O413        O  0.44912415  0.01679981  0.21869857    -0.93940
O414        O  0.59128105  0.20296590  0.23260216    -0.41750
O415        O  0.52487057  0.10983052  0.27212255    -0.78380
O416        O  0.53702323  0.15796770  0.30153357    -0.97070
O417        O  0.47286183  0.13401922  0.34296264    -0.90370
O418        O  0.46388258  0.07689013  0.30500875    -0.93210
C419        C  0.54954485  0.16935431  0.08046698     1.00540
C420        C  0.45349408  0.05635707  0.08312665     1.13470
C421        C  0.48759629  0.19974158  0.16330572     1.04250
O422        O  0.53433086  0.23052132  0.28813759    -0.95370
O423        O  0.54385446  0.19997102  0.36222526    -0.91110
O424        O  0.52450033  0.16129993  0.42128003    -0.84260
C425        C  0.54510513  0.18799314  0.40881171     1.10890
O426        O  0.39162118  0.09677985  0.24088787    -0.97340
Zr427      Zr  0.43206513  0.09489190  0.28794706     1.88940
O428        O  0.46216366  0.08185700  0.42053236    -0.73990
O429        O  0.46999399  0.18120573  0.34463873    -0.53250
O430        O  0.41167240  0.11624597  0.35021749    -0.97930
O431        O  0.39037721  0.04576118  0.25946770    -0.55150
O432        O  0.41809062  0.06307527  0.37313756    -0.74510
C433        C  0.43383917  0.06249637  0.41475910     0.97840
O434        O  0.53652686  0.13126594  0.44807942    -0.63330
O435        O  0.52139913  0.05843291  0.19659638    -0.58130
O436        O  0.52613215  0.08769056  0.38854208    -0.94810
O437        O  0.50130093  0.07780985  0.31275373    -0.93240
O438        O  0.57480407  0.12790574  0.15854950    -0.93600
O439        O  0.59814838  0.15480198  0.25115896    -0.92380
C440        C  0.51557189  0.07125472  0.34604411     1.16680
H441        H  0.51773524  0.10711712  0.12514641     0.32620
H442        H  0.55614522  0.17018395  0.32024925     0.43470
H443        H  0.45174173  0.05727079  0.32114610     0.37000
H444        H  0.44910139  0.14625477  0.22239699     0.33480
H445        H  0.61001912  0.20697629  0.21475666     0.25270
H446        H  0.48291029  0.19959178  0.36700013     0.31210
H447        H  0.39502601  0.09900657  0.37018296     0.37120
H448        H  0.57499726  0.13389200  0.11876922     0.31580
H449        H  0.51055975  0.03657331  0.19374657     0.30450
H450        H  0.45852265  0.00832845  0.19588394     0.32130
H451        H  0.37599505  0.03900514  0.29105233     0.31100
H452        H  0.59798943  0.15899602  0.29192499     0.35100
H453        H  0.52746559  0.11385139  0.47343453     0.27830
H454        H  0.45217333  0.13969222  0.04494983     0.32070
H455        H  0.37385688  0.08551855  0.26537153     0.34920
H456        H  0.52775363  0.06559727  0.15744097     0.27530
H457        H  0.55648082  0.13507346  0.43755482     0.40400
H458        H  0.55345645  0.23614395  0.26955190     0.30450
H459        H  0.58531761  0.21505438  0.21118639     0.38070
H460        H  0.39870256  0.03287445  0.26143755     0.29920
H461        H  0.45904636  0.18652151  0.31775499     0.29980
H462        H  0.42893294  0.13041193  0.09408465     0.30250
Zr463      Zr  0.37769568  0.89145931  0.82900153     2.17510
O464        O  0.33642723  0.88013273  0.89172699    -0.52110
O465        O  0.40570621  0.87901088  0.89564451    -0.75310
O466        O  0.33955699  0.83776152  0.82914377    -0.82100
O467        O  0.42251564  0.97776314  0.85982680    -0.83840
O468        O  0.34498876  0.81521363  0.75241713    -0.79470
O469        O  0.39156100  0.93326028  0.90188143    -0.91100
O470        O  0.42478101  0.86123242  0.83625236    -0.77060
O471        O  0.39658538  0.86614596  0.77607977    -0.86550
O472        O  0.42988675  0.92599394  0.81941276    -0.86240
O473        O  0.35314490  0.87608708  0.73548343    -0.73000
O474        O  0.37892201  0.93032300  0.77431433    -0.85140
Zr475      Zr  0.42734003  0.92566634  0.62529156     2.26420
Zr476      Zr  0.37410146  0.85191182  0.68282168     2.06270
Zr477      Zr  0.43177805  0.96559805  0.76810801     2.10050
Zr478      Zr  0.44864594  0.90028763  0.76802336     1.78760
O479        O  0.41687088  0.00176420  0.76201938    -0.93940
O480        O  0.45870563  0.86449410  0.72474150    -0.41750
O481        O  0.45186350  0.94023599  0.71684687    -0.78380
O482        O  0.42656280  0.88653118  0.67580826    -0.97070
O483        O  0.37528435  0.89054879  0.62894107    -0.90370
O484        O  0.40806668  0.95102385  0.67551900    -0.93210
C485        C  0.42018011  0.86613682  0.88640880     1.00540
C486        C  0.40796517  0.96252280  0.90265838     1.13470
C487        C  0.33267728  0.81460491  0.79900404     1.04250
O488        O  0.36876922  0.80362183  0.67456628    -0.95370
O489        O  0.39611034  0.84161760  0.59887003    -0.91110
O490        O  0.42660732  0.88798873  0.56527798    -0.84260
C491        C  0.41524787  0.85978770  0.56229127     1.10890
O492        O  0.30612829  0.89548173  0.71903547    -0.97340
Zr493      Zr  0.35612197  0.91586061  0.67995409     1.88940
O494        O  0.41004328  0.94883489  0.56009674    -0.73990
O495        O  0.32847835  0.83280048  0.62612797    -0.53250
O496        O  0.31773200  0.88262795  0.61163540    -0.97930
O497        O  0.34599149  0.95464981  0.70038710    -0.55150
O498        O  0.36927908  0.94731447  0.59333414    -0.74510
C499        C  0.39053233  0.95625042  0.55680046     0.97840
O500        O  0.46618464  0.94586509  0.55430978    -0.63330
O501        O  0.48081395  0.99421207  0.81491994    -0.58130
O502        O  0.46096255  0.96487698  0.68614589    -0.94810
O503        O  0.46780480  0.00644342  0.71310446    -0.93240
O504        O  0.48399666  0.92104320  0.84755907    -0.93600
O505        O  0.50248047  0.92592399  0.75112648    -0.92380
C506        C  0.47112762  0.99184522  0.67527919     1.16680
H507        H  0.43962499  0.93281243  0.85591064     0.32620
H508        H  0.43754033  0.87937263  0.65669608     0.43470
H509        H  0.41217492  0.96910259  0.65771291     0.37000
H510        H  0.33199312  0.86166775  0.74092481     0.33480
H511        H  0.47851051  0.86903802  0.73853381     0.25270
H512        H  0.32510087  0.81432484  0.60850998     0.31210
H513        H  0.31336887  0.89562631  0.58904924     0.37120
H514        H  0.49027094  0.94221085  0.84997139     0.31580
H515        H  0.47746592  0.98733438  0.85464713     0.30450
H516        H  0.43387000  0.02022271  0.77900476     0.32130
H517        H  0.33342145  0.95395466  0.66819282     0.31100
H518        H  0.50428154  0.92021810  0.71216850     0.35100
H519        H  0.47705666  0.93584549  0.56271906     0.27830
H520        H  0.33519985  0.86523356  0.91861774     0.32070
H521        H  0.29493652  0.89991627  0.69098767     0.34920
H522        H  0.49255816  0.98639392  0.79862068     0.27530
H523        H  0.45566387  0.93641401  0.51845386     0.40400
H524        H  0.38626064  0.80593602  0.69575740     0.30450
H525        H  0.44377248  0.84484026  0.74081218     0.38070
H526        H  0.36552228  0.97352656  0.69520662     0.29920
H527        H  0.31215705  0.82604296  0.65391782     0.29980
H528        H  0.31799647  0.86908861  0.86795630     0.30250
Zr529      Zr  0.36813486  0.48039021  0.48693058     2.17510
O530        O  0.33401483  0.45289863  0.40833821    -0.52110
O531        O  0.39644065  0.52722516  0.43065198    -0.75310
O532        O  0.32500660  0.48770201  0.48246912    -0.82100
O533        O  0.40823341  0.43579066  0.46795104    -0.83840
O534        O  0.32669718  0.51276697  0.56235245    -0.79470
O535        O  0.38491183  0.45488412  0.41874714    -0.91100
O536        O  0.44031335  0.55993719  0.47481439    -0.77060
O537        O  0.39118949  0.52543050  0.54153457    -0.86550
O538        O  0.41788555  0.49310488  0.50791940    -0.86240
O539        O  0.34011261  0.46851838  0.57495362    -0.73000
O540        O  0.36243678  0.43916596  0.54257869    -0.85140
Zr541      Zr  0.40602954  0.48904577  0.70251948     2.26420
Zr542      Zr  0.36279700  0.51491257  0.62735836     2.06270
Zr543      Zr  0.41294872  0.45346298  0.56410737     2.10050
Zr544      Zr  0.44101731  0.53750514  0.56180545     1.78760
O545        O  0.39661642  0.40130920  0.57304217    -0.93940
O546        O  0.45706879  0.58802244  0.58878123    -0.41750
O547        O  0.43562534  0.49813718  0.61864833    -0.78380
O548        O  0.41308930  0.52904618  0.64542755    -0.97070
O549        O  0.35591957  0.47441144  0.68341597    -0.90370
O550        O  0.38627983  0.44390549  0.64911096    -0.93210
C551        C  0.42182615  0.55259768  0.43360634     1.00540
C552        C  0.39884958  0.44054997  0.42139584     1.13470
C553        C  0.31503128  0.50021430  0.51488812     1.04250
O554        O  0.36768374  0.56274438  0.61400962    -0.95370
O555        O  0.38590442  0.54736217  0.71161759    -0.91110
O556        O  0.40169543  0.52313213  0.76659454    -0.84260
C557        C  0.39867172  0.54531182  0.75683111     1.10890
O558        O  0.28608142  0.39942789  0.58733866    -0.97340
Zr559      Zr  0.33575868  0.42867012  0.63143538     1.88940
O560        O  0.36984244  0.44968430  0.76552590    -0.73990
O561        O  0.31926284  0.49756414  0.68752202    -0.53250
O562        O  0.29770525  0.42477277  0.69517921    -0.97930
O563        O  0.32142788  0.37841278  0.60474810    -0.55150
O564        O  0.34504109  0.40742886  0.71683196    -0.74510
C565        C  0.36034831  0.42199335  0.76092607     0.97840
O566        O  0.45157557  0.52611525  0.75232209    -0.63330
O567        O  0.46179309  0.46662109  0.52836700    -0.58130
O568        O  0.43589759  0.46925422  0.72701333    -0.94810
O569        O  0.44641925  0.45886327  0.64038931    -0.93240
O570        O  0.48115391  0.53885804  0.50821656    -0.93600
O571        O  0.48893234  0.56502914  0.61208571    -0.92380
C572        C  0.45162776  0.46426833  0.69383796     1.16680
H573        H  0.42917399  0.49605814  0.47395307     0.32620
H574        H  0.42498885  0.54755101  0.66574342     0.43470
H575        H  0.38901789  0.42941935  0.66798661     0.37000
H576        H  0.31925350  0.46117724  0.56752351     0.33480
H577        H  0.47412139  0.60109704  0.56390758     0.25270
H578        H  0.31580571  0.51413802  0.68778408     0.31210
H579        H  0.29217302  0.40727600  0.71907205     0.37120
H580        H  0.48960524  0.55693570  0.48452332     0.31580
H581        H  0.45918165  0.44759857  0.51592133     0.30450
H582        H  0.41551233  0.40144630  0.57457936     0.32130
H583        H  0.30865620  0.36565489  0.63602654     0.31100
H584        H  0.50370695  0.57958304  0.58495838     0.35100
H585        H  0.45300047  0.54545575  0.75202677     0.27830
H586        H  0.33252198  0.46788429  0.38615063     0.32070
H587        H  0.27330000  0.38380795  0.61501817     0.34920
H588        H  0.46459095  0.47778837  0.49293932     0.27530
H589        H  0.46685965  0.52958435  0.72422798     0.40400
H590        H  0.38398300  0.57321725  0.58617929     0.30450
H591        H  0.44042211  0.59030925  0.57609809     0.38070
H592        H  0.34017269  0.37840396  0.60880597     0.29920
H593        H  0.30220721  0.48165683  0.66511068     0.29980
H594        H  0.31399608  0.44019558  0.42563933     0.30250
Zr595      Zr  0.48117613  0.36815491  0.16639247     2.17510
O596        O  0.44837548  0.33277521  0.23777344    -0.52110
O597        O  0.52361633  0.39713884  0.23514497    -0.75310
O598        O  0.48497934  0.32303352  0.17175256    -0.82100
O599        O  0.45169677  0.42199928  0.18375483    -0.83840
O600        O  0.50167196  0.31678215  0.08701343    -0.79470
O601        O  0.45662481  0.38774735  0.23156411    -0.91100
O602        O  0.56168899  0.43595621  0.18732540    -0.77060
O603        O  0.52426122  0.38037994  0.10970018    -0.86550
O604        O  0.50537334  0.41946516  0.14474503    -0.86240
O605        O  0.46435088  0.34004761  0.07728576    -0.73000
O606        O  0.44464581  0.37239480  0.11132683    -0.85140
Zr607      Zr  0.49254276  0.40395779  0.95013388     2.26420
Zr608      Zr  0.50836824  0.35330727  0.02054052     2.06270
Zr609      Zr  0.47036946  0.42423964  0.08948157     2.10050
Zr610      Zr  0.54800198  0.43180453  0.08963512     1.78760
O611        O  0.42420097  0.42425189  0.08140855    -0.93940
O612        O  0.58978639  0.42416311  0.09065552    -0.41750
O613        O  0.51190335  0.43459807  0.03375586    -0.78380
O614        O  0.53212384  0.40503230  0.00290619    -0.97070
O615        O  0.46889934  0.35296002  0.96800488    -0.90370
O616        O  0.45130746  0.39533695  0.00600849    -0.93210
C617        C  0.54974564  0.42166399  0.23271295     1.00540
C618        C  0.44887506  0.40746952  0.22905439     1.13470
C619        C  0.49259431  0.30902376  0.13756457     1.04250
O620        O  0.54867356  0.34368228  0.02567521    -0.95370
O621        O  0.54379639  0.37463210  0.93855355    -0.91110
O622        O  0.51680574  0.38706094  0.88602809    -0.84260
C623        C  0.54078793  0.38671775  0.89355395     1.10890
O624        O  0.39342768  0.29649855  0.07106344    -0.97340
Zr625      Zr  0.42693049  0.34374374  0.02410438     1.88940
O626        O  0.44746911  0.38582279  0.88958533    -0.73990
O627        O  0.48087575  0.30979882  0.95934731    -0.53250
O628        O  0.41165127  0.30298329  0.95748139    -0.97930
O629        O  0.38085003  0.33850761  0.05858870    -0.55150
O630        O  0.40648410  0.35777390  0.94293695    -0.74510
C631        C  0.41929039  0.37412025  0.89908952     0.97840
O632        O  0.51666796  0.43774360  0.87306103    -0.63330
O633        O  0.50015826  0.47628310  0.11834936    -0.58130
O634        O  0.50464733  0.45246327  0.93742043    -0.94810
O635        O  0.48568079  0.46071800  0.01589929    -0.93240
O636        O  0.56419232  0.48304961  0.11204020    -0.93600
O637        O  0.59028748  0.46995869  0.03551780    -0.92380
C638        C  0.49785607  0.46773836  0.96686836     1.16680
H639        H  0.51045103  0.43165843  0.17827200     0.32620
H640        H  0.55064348  0.41533442  0.98226221     0.43470
H641        H  0.43955536  0.40240134  0.98900994     0.37000
H642        H  0.45414668  0.31912859  0.08602659     0.33480
H643        H  0.60612231  0.44155655  0.11153860     0.25270
H644        H  0.49490781  0.30299243  0.95368527     0.31210
H645        H  0.39307390  0.29972187  0.93930942     0.37120
H646        H  0.58127372  0.49000559  0.13890818     0.31580
H647        H  0.48547648  0.48207805  0.12551758     0.30450
H648        H  0.42971659  0.44413422  0.09544230     0.32130
H649        H  0.36608978  0.32869222  0.02723064     0.31100
H650        H  0.58107624  0.47212137  0.00060474     0.35100
H651        H  0.50716307  0.42586637  0.83843657     0.27830
H652        H  0.46158227  0.32946502  0.26261558     0.32070
H653        H  0.37554999  0.28549862  0.04596233     0.34920
H654        H  0.50888529  0.47645967  0.15577320     0.27530
H655        H  0.53697019  0.44096764  0.87558470     0.40400
H656        H  0.56576540  0.36189281  0.04319558     0.30450
H657        H  0.58357273  0.40720092  0.11650861     0.38070
H658        H  0.38520406  0.35908419  0.05945779     0.29920
H659        H  0.46493325  0.29440212  0.98371264     0.29980
H660        H  0.43552633  0.31370510  0.21728391     0.30250
Zr661      Zr  0.13393780  0.48392405  0.53863604     2.17510
O662        O  0.13503868  0.44854160  0.60274546    -0.52110
O663        O  0.15542141  0.52608245  0.60686449    -0.75310
O664        O  0.18390803  0.48931162  0.53831347    -0.82100
O665        O  0.04833926  0.44998374  0.56601316    -0.83840
O666        O  0.20294933  0.50184977  0.44885891    -0.79470
O667        O  0.09189579  0.46435651  0.61250576    -0.91100
O668        O  0.16565129  0.56674728  0.55591869    -0.77060
O669        O  0.16725349  0.52342482  0.47483551    -0.86550
O670        O  0.11290393  0.51361528  0.52592674    -0.86240
O671        O  0.13714796  0.46413019  0.44670013    -0.73000
O672        O  0.08649112  0.44969836  0.49306239    -0.85140
Zr673      Zr  0.10166736  0.49946180  0.32980371     2.26420
Zr674      Zr  0.17002344  0.50471142  0.38309464     2.06270
Zr675      Zr  0.06580570  0.48009458  0.48278451     2.10050
Zr676      Zr  0.14634578  0.55279189  0.46267838     1.78760
O677        O  0.01119910  0.45269732  0.48524162    -0.93940
O678        O  0.20049024  0.58646311  0.45191197    -0.41750
O679        O  0.09894538  0.51944174  0.42122391    -0.78380
O680        O  0.14881701  0.53420781  0.37362488    -0.97070
O681        O  0.12296671  0.47020817  0.33889753    -0.90370
O682        O  0.06685022  0.45883774  0.39322225    -0.93210
C683        C  0.16430996  0.55383242  0.60221265     1.00540
C684        C  0.06270956  0.45250748  0.61153953     1.13470
C685        C  0.20432679  0.49594736  0.50072253     1.04250
O686        O  0.22375980  0.53756923  0.36764996    -0.95370
O687        O  0.18417266  0.53765708  0.29701313    -0.91110
O688        O  0.13889240  0.51388441  0.25561464    -0.84260
C689        C  0.16632988  0.53578283  0.25680319     1.10890
O690        O  0.09614959  0.39299061  0.44386615    -0.97340
Zr691      Zr  0.08926428  0.43071082  0.40064002     1.88940
O692        O  0.06940063  0.45705615  0.26849719    -0.73990
O693        O  0.17362221  0.46846808  0.32663450    -0.53250
O694        O  0.10896892  0.41104045  0.33266583    -0.97930
O695        O  0.04257967  0.38785455  0.43476734    -0.55150
O696        O  0.05252151  0.41524223  0.31971831    -0.74510
C697        C  0.05008674  0.42940259  0.27741045     0.97840
O698        O  0.10398096  0.54362074  0.29399085    -0.63330
O699        O  0.05452045  0.51479527  0.52525891    -0.58130
O700        O  0.06177931  0.50644541  0.30813883    -0.94810
O701        O  0.06393587  0.49284576  0.39011971    -0.93240
O702        O  0.12847680  0.58520166  0.48723955    -0.93600
O703        O  0.15221793  0.59296726  0.40246849    -0.92380
C704        C  0.05067515  0.50001484  0.35625368     1.16680
H705        H  0.10944598  0.52059600  0.56092663     0.32620
H706        H  0.15974709  0.55225309  0.35201075     0.43470
H707        H  0.04626870  0.44510670  0.38061398     0.37000
H708        H  0.14619041  0.45265834  0.45344177     0.33480
H709        H  0.20487398  0.60573256  0.46739296     0.25270
H710        H  0.19160549  0.48060882  0.30301944     0.31210
H711        H  0.09098423  0.39464952  0.31310526     0.37120
H712        H  0.14603856  0.60305107  0.50479138     0.31580
H713        H  0.05763199  0.51386045  0.56638915     0.30450
H714        H  0.00596368  0.46804443  0.48596574     0.32130
H715        H  0.03425047  0.37391115  0.40218689     0.31100
H716        H  0.17086537  0.60014281  0.38083162     0.35100
H717        H  0.12504895  0.56003751  0.30007687     0.27830
H718        H  0.15257612  0.46068481  0.62813665     0.32070
H719        H  0.08459081  0.37497541  0.41986264     0.34920
H720        H  0.07124095  0.53472853  0.51369063     0.27530
H721        H  0.10072775  0.54154832  0.25261925     0.40400
H722        H  0.22890398  0.55691204  0.38411705     0.30450
H723        H  0.20985059  0.57970480  0.47954572     0.38070
H724        H  0.02887562  0.39516444  0.43892999     0.29920
H725        H  0.17973187  0.45850748  0.35406387     0.29980
H726        H  0.14073037  0.43701958  0.57898323     0.30250
Zr727      Zr  0.89843577  0.38784353  0.85013306     2.17510
O728        O  0.89336249  0.35303248  0.77697043    -0.52110
O729        O  0.88766575  0.41743066  0.78451612    -0.75310
O730        O  0.84559120  0.34536851  0.83700931    -0.82100
O731        O  0.98632637  0.43443594  0.84357794    -0.83840
O732        O  0.81810573  0.34219633  0.91422691    -0.79470
O733        O  0.94485782  0.40429726  0.78982002    -0.91100
O734        O  0.87419301  0.44277465  0.83938812    -0.77060
O735        O  0.87139813  0.40620160  0.89818434    -0.86550
O736        O  0.93411382  0.43846200  0.87285132    -0.86240
O737        O  0.87767738  0.35965928  0.93707074    -0.73000
O738        O  0.93336092  0.38553196  0.91383169    -0.85140
Zr739      Zr  0.91911236  0.42575568  0.06725841     2.26420
Zr740      Zr  0.85017647  0.37842127  0.98375002     2.06270
Zr741      Zr  0.96826506  0.43669430  0.93673656     2.10050
Zr742      Zr  0.90751412  0.45688865  0.91961570     1.78760
O743        O  0.00885362  0.42747298  0.94109643    -0.93940
O744        O  0.87284443  0.47234079  0.94341591    -0.41750
O745        O  0.94219405  0.45583594  0.98403441    -0.78380
O746        O  0.88584115  0.42956905  0.00352046    -0.97070
O747        O  0.88380943  0.37500318  0.04748982    -0.90370
O748        O  0.94707776  0.40862115  0.02006298    -0.93210
C749        C  0.87695509  0.43415932  0.79092658     1.00540
C750        C  0.97404217  0.42159419  0.79623910     1.13470
C751        C  0.82106902  0.33314366  0.86606317     1.04250
O752        O  0.80445771  0.37777394  0.96253165    -0.95370
O753        O  0.83598925  0.39947506  0.06192776    -0.91110
O754        O  0.87681035  0.42119698  0.12032671    -0.84260
C755        C  0.85005589  0.41434529  0.10700643     1.10890
O756        O  0.89340525  0.31008629  0.95447041    -0.97340
Zr757      Zr  0.91246666  0.35804752  0.00088323     1.88940
O758        O  0.92617430  0.39569198  0.13781497    -0.73990
O759        O  0.82282327  0.33464088  0.04330136    -0.53250
O760        O  0.87599989  0.31681151  0.05904135    -0.97930
O761        O  0.95481442  0.35220197  0.98526376    -0.55150
O762        O  0.93950423  0.36740144  0.09204010    -0.74510
C763        C  0.94125866  0.38298455  0.13534163     0.97840
O764        O  0.93194982  0.46809367  0.12846502    -0.63330
O765        O  0.00043515  0.48923267  0.91448225    -0.58130
O766        O  0.96941105  0.46036137  0.09451046    -0.94810
O767        O  0.99726426  0.46187399  0.02022568    -0.93240
O768        O  0.93868275  0.49492463  0.85042714    -0.93600
O769        O  0.93299871  0.50594375  0.96429091    -0.92380
C770        C  0.99428790  0.46925062  0.07047495     1.16680
H771        H  0.94399728  0.44983017  0.83936168     0.32620
H772        H  0.87799322  0.44045944  0.02058231     0.43470
H773        H  0.96370380  0.41114124  0.04224283     0.37000
H774        H  0.86425753  0.33897729  0.92775062     0.33480
H775        H  0.88169256  0.49283399  0.92931669     0.25270
H776        H  0.80144536  0.32790769  0.03753457     0.31210
H777        H  0.88812299  0.31150457  0.08263208     0.37120
H778        H  0.95795427  0.50873726  0.87000913     0.31580
H779        H  0.01945265  0.49159101  0.90215842     0.30450
H780        H  0.02738321  0.44732028  0.93595977     0.32130
H781        H  0.95268616  0.34530604  0.94555725     0.31100
H782        H  0.93033545  0.50186767  0.00541394     0.35100
H783        H  0.92058790  0.47663807  0.11295716     0.27830
H784        H  0.87815111  0.35156297  0.74983110     0.32070
H785        H  0.89840215  0.29860559  0.98026483     0.34920
H786        H  0.99161754  0.49207050  0.87968771     0.27530
H787        H  0.92309324  0.46011000  0.16596839     0.40400
H788        H  0.81140958  0.39636208  0.94129289     0.30450
H789        H  0.85464700  0.45997988  0.91959851     0.38070
H790        H  0.95070369  0.33495512  0.00852907     0.29920
H791        H  0.82494890  0.31927674  0.02423860     0.29980
H792        H  0.88361350  0.33335853  0.79559198     0.30250
C793        C  0.97700308  0.37249472  0.19315009    -0.02620
C794        C  0.96501448  0.39044249  0.18065458     0.07060
C795        C  0.98060428  0.41938294  0.20351445    -0.02740
C796        C  0.01023554  0.43239755  0.22251063    -0.02740
C797        C  0.02182300  0.41492026  0.24018996     0.07190
C798        C  0.00401733  0.38408314  0.22652541    -0.02930
Br799      Br  0.01780114  0.35835131  0.24814187    -0.01480
Br800      Br  0.95529135  0.33153969  0.16889351    -0.01550
Br801      Br  0.03474618  0.47431374  0.21122072    -0.01510
Br802      Br  0.96187429  0.44168661  0.21549943    -0.01500
C803        C  0.01757888  0.41366183  0.67022889    -0.02620
C804        C  0.04323160  0.44303982  0.66467883     0.07060
C805        C  0.04462653  0.46501439  0.70066349    -0.02740
C806        C  0.02117023  0.45816199  0.73953345    -0.02740
C807        C  0.99617920  0.42855857  0.74736551     0.07190
C808        C  0.99487061  0.40637647  0.71169532    -0.02930
Br809      Br  0.96198284  0.36576788  0.71944104    -0.01480
Br810      Br  0.01349850  0.38311347  0.62004610    -0.01550
Br811      Br  0.02161685  0.49066910  0.77639113    -0.01510
Br812      Br  0.07813082  0.50550266  0.69393167    -0.01500
C813        C  0.23191143  0.47024483  0.51416575    -0.02620
C814        C  0.23217874  0.49689785  0.51460161     0.07060
C815        C  0.25970347  0.52429944  0.50896190    -0.02740
C816        C  0.28664682  0.52505612  0.50231461    -0.02740
C817        C  0.28654685  0.49844179  0.50224409     0.07190
C818        C  0.25898956  0.47098491  0.50841282    -0.02930
Br819      Br  0.25827326  0.43434955  0.51126368    -0.01480
Br820      Br  0.19413250  0.43267716  0.51941550    -0.01550
Br821      Br  0.32402175  0.56271958  0.49301867    -0.01510
Br822      Br  0.26022420  0.56093065  0.50957380    -0.01500
C823        C  0.39961408  0.42671619  0.82956018    -0.02620
C824        C  0.37134401  0.40815044  0.80330156     0.07060
C825        C  0.35729661  0.37692541  0.81180457    -0.02740
C826        C  0.37194502  0.36531515  0.84440881    -0.02740
C827        C  0.40233924  0.38415629  0.86215526     0.07190
C828        C  0.41620678  0.41477217  0.84962556    -0.02930
Br829      Br  0.45875955  0.44077460  0.84879897    -0.01480
Br830      Br  0.41582900  0.46863415  0.84290389    -0.01550
Br831      Br  0.35133816  0.32339157  0.86012437    -0.01510
Br832      Br  0.31718904  0.35016288  0.78312351    -0.01500
C833        C  0.42768315  0.45201753  0.32937800    -0.02620
C834        C  0.40765896  0.43061885  0.36829059     0.07060
C835        C  0.40193276  0.40132016  0.36277443    -0.02740
C836        C  0.41525241  0.39354683  0.31885124    -0.02740
C837        C  0.43580944  0.41515268  0.28001050     0.07190
C838        C  0.44209378  0.44476480  0.28736298    -0.02930
Br839      Br  0.47318994  0.47743154  0.24469130    -0.01480
Br840      Br  0.43737578  0.49252173  0.33653203    -0.01550
Br841      Br  0.40450103  0.35286695  0.31192665    -0.01510
Br842      Br  0.37507353  0.37133479  0.41556001    -0.01500
C843        C  0.46241929  0.25381101  0.15112889    -0.02620
C844        C  0.49052394  0.28102267  0.15330324     0.07060
C845        C  0.51702102  0.28051324  0.15035226    -0.02740
C846        C  0.51551593  0.25341302  0.14412939    -0.02740
C847        C  0.48754775  0.22614368  0.14398185     0.07190
C848        C  0.46097868  0.22646733  0.14770117    -0.02930
Br849      Br  0.42276646  0.18927440  0.15007937    -0.01480
Br850      Br  0.42593785  0.25409135  0.15090374    -0.01550
Br851      Br  0.55205797  0.25330771  0.13777976    -0.01510
Br852      Br  0.55566282  0.31738857  0.15493726    -0.01500
C853        C  0.38970646  0.01841963  0.46948952    -0.02620
C854        C  0.42041147  0.03547711  0.45323746     0.07060
C855        C  0.43803537  0.02342284  0.46671315    -0.02740
C856        C  0.42481128  0.99420034  0.48543126    -0.02740
C857        C  0.39662752  0.97967498  0.51234897     0.07190
C858        C  0.37851531  0.99183273  0.50242336    -0.02930
Br859      Br  0.33768551  0.97096210  0.52842159    -0.01480
Br860      Br  0.36351244  0.03223749  0.45035256    -0.01550
Br861      Br  0.44501603  0.97412617  0.46484460    -0.01510
Br862      Br  0.48109130  0.04589099  0.46600079    -0.01500
C863        C  0.40458967  0.00282180  0.95739852    -0.02620
C864        C  0.41374796  0.98187665  0.95541954     0.07060
C865        C  0.43668258  0.98674432  0.99377205    -0.02740
C866        C  0.45059117  0.01181238  0.03132912    -0.02740
C867        C  0.44072342  0.03231447  0.03545334     0.07190
C868        C  0.41731650  0.02724511  0.99738318    -0.02930
Br869      Br  0.40333486  0.05436099  0.99903024    -0.01480
Br870      Br  0.37469847  0.99804072  0.90336573    -0.01550
Br871      Br  0.48620128  0.01943556  0.07157265    -0.01510
Br872      Br  0.45059565  0.95956000  0.99176801    -0.01500
C873        C  0.43938127  0.87016593  0.46927453    -0.02620
C874        C  0.42788067  0.85047387  0.51487500     0.07060
C875        C  0.43829032  0.83056340  0.51990216    -0.02740
C876        C  0.46072750  0.83297465  0.48130714    -0.02740
C877        C  0.47689100  0.85880007  0.44698054     0.07190
C878        C  0.46808174  0.87940379  0.45133079    -0.02930
Br879      Br  0.49776896  0.91939104  0.47318268    -0.01480
Br880      Br  0.42010315  0.88988027  0.44028947    -0.01550
Br881      Br  0.47258181  0.80450845  0.48248670    -0.01510
Br882      Br  0.42333196  0.80159753  0.57932038    -0.01500
C883        C  0.43766043  0.85011133  0.03462622    -0.02620
C884        C  0.46608411  0.85388987  0.02593979     0.07060
C885        C  0.47501042  0.85352138  0.97062269    -0.02740
C886        C  0.45838755  0.85451165  0.92467748    -0.02740
C887        C  0.43361916  0.85813235  0.93402212     0.07190
C888        C  0.42307458  0.85516947  0.99006145    -0.02930
Br889      Br  0.38993598  0.85957454  0.00924181    -0.01480
Br890      Br  0.41706909  0.83637157  0.10577509    -0.01550
Br891      Br  0.47216250  0.85212686  0.85093045    -0.01510
Br892      Br  0.50944785  0.85006562  0.95846003    -0.01500
C893        C  0.55128597  0.05648394  0.32833753    -0.02620
C894        C  0.52153220  0.04910333  0.33239046     0.07060
C895        C  0.49712470  0.02079709  0.31866311    -0.02740
C896        C  0.50265346  0.00008517  0.29779958    -0.02740
C897        C  0.53145657  0.00538282  0.30474486     0.07190
C898        C  0.55622978  0.03371077  0.31830244    -0.02930
Br899      Br  0.59613180  0.04127846  0.32517464    -0.01480
Br900      Br  0.58458405  0.09706655  0.33720888    -0.01550
Br901      Br  0.47013710  0.96398478  0.26430619    -0.01510
Br902      Br  0.45640707  0.00858280  0.33598385    -0.01500
C903        C  0.78747837  0.27836324  0.87362364    -0.02620
C904        C  0.79415399  0.30499436  0.84706271     0.07060
C905        C  0.77154845  0.30558685  0.81637825    -0.02740
C906        C  0.74291806  0.27941790  0.80993833    -0.02740
C907        C  0.73701323  0.25171236  0.83119189     0.07190
C908        C  0.75906558  0.25200419  0.86647296    -0.02930
Br909      Br  0.75076182  0.21765034  0.90924623    -0.01480
Br910      Br  0.81726936  0.27812521  0.92169392    -0.01550
Br911      Br  0.71091142  0.28305481  0.77947164    -0.01510
Br912      Br  0.77969296  0.34283384  0.78545141    -0.01500
C913        C  0.64791840  0.02901699  0.44745224    -0.02620
C914        C  0.61648710  0.00945480  0.43701225     0.07060
C915        C  0.59753386  0.01849955  0.45855647    -0.02740
C916        C  0.60937357  0.04777418  0.47643968    -0.02740
C917        C  0.63944639  0.06526060  0.49611099     0.07190
C918        C  0.65894106  0.05561124  0.48043623    -0.02930
Br919      Br  0.70116685  0.08036027  0.49832814    -0.01480
Br920      Br  0.67590618  0.01891949  0.42079108    -0.01550
Br921      Br  0.58293519  0.06253622  0.46844656    -0.01510
Br922      Br  0.55521020  0.99161800  0.47160235    -0.01500
C923        C  0.62590267  0.01811318  0.99207756    -0.02620
C924        C  0.59523704  0.99954214  0.00743403     0.07060
C925        C  0.57509808  0.00702741  0.98440838    -0.02740
C926        C  0.58504788  0.03207974  0.94842750    -0.02740
C927        C  0.61542894  0.05012769  0.93126851     0.07190
C928        C  0.63572000  0.04256233  0.95350281    -0.02930
Br929      Br  0.67704173  0.06572041  0.93079146    -0.01480
Br930      Br  0.65458971  0.01042669  0.02543277    -0.01550
Br931      Br  0.55680145  0.04283263  0.92526265    -0.01510
Br932      Br  0.53303890  0.98259161  0.00297242    -0.01500
C933        C  0.51216577  0.05486195  0.59102568    -0.02620
C934        C  0.53818670  0.05389733  0.59731104     0.07060
C935        C  0.53634500  0.02667223  0.59016040    -0.02740
C936        C  0.51043773  0.00172626  0.61038557    -0.02740
C937        C  0.48585450  0.00457234  0.62293664     0.07190
C938        C  0.48489921  0.02902663  0.60352963    -0.02930
Br939      Br  0.44925650  0.03045012  0.61396473    -0.01480
Br940      Br  0.51420071  0.09216622  0.58877203    -0.01550
Br941      Br  0.51490140  0.97083109  0.64437195    -0.01510
Br942      Br  0.57303329  0.02645222  0.59361287    -0.01500
C943        C  0.56844472  0.20219030  0.50671605    -0.02620
C944        C  0.57233545  0.20285325  0.44766960     0.07060
C945        C  0.60077377  0.20979314  0.42818380    -0.02740
C946        C  0.62158201  0.20882373  0.46540821    -0.02740
C947        C  0.61621679  0.20494067  0.52401392     0.07190
C948        C  0.59088081  0.20481173  0.54451840    -0.02930
Br949      Br  0.58605420  0.20762507  0.62405747    -0.01480
Br950      Br  0.53175679  0.19700892  0.53550334    -0.01550
Br951      Br  0.65722915  0.21194126  0.43614142    -0.01510
Br952      Br  0.61205091  0.22136543  0.35138656    -0.01500
C953        C  0.61375297  0.18330311  0.98545899    -0.02620
C954        C  0.59733489  0.17071996  0.93504564     0.07060
C955        C  0.56771458  0.16509790  0.93012002    -0.02740
C956        C  0.55457385  0.17059387  0.97576794    -0.02740
C957        C  0.56864137  0.17744759  0.02918378     0.07190
C958        C  0.59950071  0.18649623  0.03272150    -0.02930
Br959      Br  0.62366943  0.20434218  0.10010325    -0.01480
Br960      Br  0.65599313  0.19696826  0.98943760    -0.01550
Br961      Br  0.51787172  0.17028966  0.96395414    -0.01510
Br962      Br  0.54247487  0.14676424  0.86392470    -0.01500
C963        C  0.83277404  0.42276956  0.20088788    -0.02620
C964        C  0.83723117  0.42834799  0.14245646     0.07060
C965        C  0.83562949  0.45225743  0.12048703    -0.02740
C966        C  0.83747952  0.47428175  0.15706562    -0.02740
C967        C  0.83668815  0.47054874  0.21618057     0.07190
C968        C  0.83005502  0.44258484  0.23674258    -0.02930
Br969      Br  0.81611667  0.43046352  0.31243733    -0.01480
Br970      Br  0.83061739  0.38805727  0.23145001    -0.01550
Br971      Br  0.84138307  0.50982657  0.12649056    -0.01510
Br972      Br  0.83056579  0.45489060  0.04079081    -0.01500
C973        C  0.86985663  0.47282940  0.74183084    -0.02620
C974        C  0.86830471  0.44515613  0.74033412     0.07060
C975        C  0.85946538  0.42882689  0.68906706    -0.02740
C976        C  0.85779767  0.44210170  0.63855489    -0.02740
C977        C  0.86407020  0.47172723  0.63929526     0.07190
C978        C  0.86639306  0.48515557  0.69187382    -0.02930
Br979      Br  0.86330701  0.51991148  0.69576382    -0.01480
Br980      Br  0.87897418  0.49648454  0.80970791    -0.01550
Br981      Br  0.84703604  0.41864365  0.56976361    -0.01510
Br982      Br  0.84860857  0.38776644  0.68752478    -0.01500
C983        C  0.99816263  0.48117968  0.36140613    -0.02620
C984        C  0.02779906  0.50468285  0.37152274     0.07060
C985        C  0.03655493  0.53445356  0.36617629    -0.02740
C986        C  0.01774359  0.54049355  0.33672199    -0.02740
C987        C  0.98820832  0.51744247  0.32692039     0.07190
C988        C  0.97751467  0.48800606  0.34256866    -0.02930
Br989      Br  0.93541735  0.45748640  0.33701069    -0.01480
Br990      Br  0.98724142  0.44027722  0.36335798    -0.01550
Br991      Br  0.03322413  0.57880532  0.30268245    -0.01510
Br992      Br  0.07654422  0.56637171  0.38719932    -0.01500
C993        C  0.30263841  0.77922126  0.87565305    -0.02620
C994        C  0.30764989  0.78511977  0.81760024     0.07060
C995        C  0.28697993  0.76357790  0.77804299    -0.02740
C996        C  0.25970670  0.73914795  0.79698500    -0.02740
C997        C  0.25243998  0.73663457  0.85479903     0.07190
C998        C  0.27461883  0.75616884  0.89451585    -0.02930
Br999      Br  0.26693785  0.75390299  0.97469716    -0.01480
Br1000     Br  0.33520877  0.80080195  0.92900493    -0.01550
Br1001     Br  0.23293868  0.70865819  0.74339739    -0.01510
Br1002     Br  0.29464946  0.76626524  0.69769790    -0.01500
C1003       C  0.05237065  0.64147891  0.18885005    -0.02620
C1004       C  0.04559161  0.63621234  0.13068813     0.07060
C1005       C  0.01624783  0.62662602  0.11141131    -0.02740
C1006       C  0.99283506  0.61733984  0.15054035    -0.02740
C1007       C  0.99920390  0.62092804  0.20909736     0.07190
C1008       C  0.02956984  0.63551473  0.22761777    -0.02930
Br1009     Br  0.04041943  0.64734846  0.30568998    -0.01480
Br1010     Br  0.09301639  0.65715261  0.21503320    -0.01550
Br1011     Br  0.95198131  0.59989016  0.12399199    -0.01510
Br1012     Br  0.00788061  0.62604591  0.03152559    -0.01500
C1013       C  0.06298893  0.63651739  0.65117138    -0.02620
C1014       C  0.05530666  0.63414031  0.70886842     0.07060
C1015       C  0.02467645  0.62384598  0.72015030    -0.02740
C1016       C  0.00173838  0.61029236  0.67756296    -0.02740
C1017       C  0.00896030  0.60982121  0.61997972     0.07190
C1018       C  0.04040864  0.62541258  0.60738877    -0.02930
Br1019     Br  0.05359696  0.63373303  0.52988632    -0.01480
Br1020     Br  0.10454924  0.65601757  0.63157792    -0.01550
Br1021     Br  0.96037126  0.59074127  0.70082769    -0.01510
Br1022     Br  0.01426020  0.63088979  0.79399877    -0.01500
C1023       C  0.05434738  0.51758920  0.02160273    -0.02620
C1024       C  0.04023309  0.53396275  0.01365063     0.07060
C1025       C  0.02308352  0.53541156  0.05740295    -0.02740
C1026       C  0.01787698  0.51772579  0.10501290    -0.02740
C1027       C  0.02135914  0.49360339  0.09782483     0.07190
C1028       C  0.04715656  0.49952089  0.06945544    -0.02930
Br1029     Br  0.05856260  0.47057344  0.07426412    -0.01480
Br1030     Br  0.07818412  0.51503092  0.96326607    -0.01550
Br1031     Br  0.99898329  0.52080113  0.17119788    -0.01510
Br1032     Br  0.00751606  0.56073036  0.05308877    -0.01500
C1033       C  0.15473263  0.59103106  0.18656104    -0.02620
C1034       C  0.17954160  0.61064163  0.15370620     0.07060
C1035       C  0.20492715  0.60772734  0.16010468    -0.02740
C1036       C  0.20303041  0.58491239  0.19722529    -0.02740
C1037       C  0.17422808  0.56125354  0.21590812     0.07190
C1038       C  0.14990651  0.56329370  0.19887807    -0.02930
Br1039     Br  0.11870332  0.53067245  0.15519563    -0.01480
Br1040     Br  0.12792375  0.60211724  0.21558951    -0.01550
Br1041     Br  0.23821728  0.58426591  0.21616689    -0.01510
Br1042     Br  0.24137124  0.63455978  0.12102023    -0.01500
C1043       C  0.20113337  0.60460149  0.73031243    -0.02620
C1044       C  0.18708859  0.62120012  0.72577997     0.07060
C1045       C  0.16898180  0.61639064  0.67844418    -0.02740
C1046       C  0.15625765  0.58962616  0.64972398    -0.02740
C1047       C  0.17006804  0.57304245  0.65178478     0.07190
C1048       C  0.19371555  0.58145723  0.69083838    -0.02930
Br1049     Br  0.21530701  0.56147705  0.69017695    -0.01480
Br1050     Br  0.23236643  0.61533852  0.78591685    -0.01550
Br1051     Br  0.11815023  0.57496921  0.61247609    -0.01510
Br1052     Br  0.16421398  0.64729191  0.64828347    -0.01500
C1053       C  0.57205642  0.78433604  0.13850918    -0.02620
C1054       C  0.54475865  0.75740396  0.14939838     0.07060
C1055       C  0.51802865  0.75717729  0.15437315    -0.02740
C1056       C  0.51858422  0.78375601  0.14928923    -0.02740
C1057       C  0.54610146  0.81099687  0.14171351     0.07190
C1058       C  0.57280425  0.81121479  0.13551820    -0.02930
Br1059     Br  0.61043524  0.84839811  0.12542724    -0.01480
Br1060     Br  0.60818089  0.78422116  0.12611534    -0.01550
Br1061     Br  0.48155738  0.78309045  0.15361092    -0.01510
Br1062     Br  0.48064596  0.72024477  0.16894390    -0.01500
C1063       C  0.48665760  0.50535837  0.96154515    -0.02620
C1064       C  0.50606792  0.49625743  0.94551767     0.07060
C1065       C  0.53712246  0.51709715  0.93901543    -0.02740
C1066       C  0.54965165  0.54424549  0.96690164    -0.02740
C1067       C  0.53058283  0.54941797  0.99827294     0.07190
C1068       C  0.49909772  0.53218435  0.98963050    -0.02930
Br1069     Br  0.47182557  0.54181975  0.02209207    -0.01480
Br1070     Br  0.44399914  0.47637146  0.96987834    -0.01550
Br1071     Br  0.59250221  0.57268641  0.96784149    -0.01510
Br1072     Br  0.56379045  0.50605730  0.90950886    -0.01500
C1073       C  0.43819556  0.59930055  0.78061093    -0.02620
C1074       C  0.41381857  0.57108356  0.79794200     0.07060
C1075       C  0.40791665  0.56638899  0.85625881    -0.02740
C1076       C  0.42757898  0.58810999  0.89635255    -0.02740
C1077       C  0.45450655  0.61423205  0.87928644     0.07190
C1078       C  0.45893713  0.62017114  0.82091789    -0.02930
Br1079     Br  0.49487117  0.65606059  0.79649992    -0.01480
Br1080     Br  0.44466992  0.60915212  0.70172501    -0.01550
Br1081     Br  0.41801366  0.58104600  0.97509850    -0.01510
Br1082     Br  0.37300992  0.52966831  0.88113547    -0.01500
C1083       C  0.43870906  0.58768857  0.28614233    -0.02620
C1084       C  0.46639742  0.61518358  0.29740237     0.07060
C1085       C  0.47318705  0.62456062  0.35417500    -0.02740
C1086       C  0.45481666  0.60552664  0.39784175    -0.02740
C1087       C  0.43233146  0.57517378  0.38664214     0.07190
C1088       C  0.42318176  0.56698647  0.32986763    -0.02930
Br1089     Br  0.38951932  0.52766306  0.31029168    -0.01480
Br1090     Br  0.41923207  0.57803562  0.21308700    -0.01550
Br1091     Br  0.45770931  0.62279816  0.47098507    -0.01510
Br1092     Br  0.50587096  0.66445670  0.37230028    -0.01500
C1093       C  0.75708492  0.52151746  0.51612756    -0.02620
C1094       C  0.75729676  0.54816119  0.51679960     0.07060
C1095       C  0.78487157  0.57566649  0.52238433    -0.02740
C1096       C  0.81213508  0.57649271  0.52442710    -0.02740
C1097       C  0.81177578  0.54978863  0.52319641     0.07190
C1098       C  0.78408395  0.52231363  0.52098862    -0.02930
Br1099     Br  0.78349679  0.48561045  0.52222660    -0.01480
Br1100     Br  0.71952312  0.48373737  0.50752851    -0.01550
Br1101     Br  0.85004379  0.61405498  0.52635172    -0.01510
Br1102     Br  0.78520204  0.61200859  0.52897943    -0.01500
C1103       C  0.59975688  0.62339059  0.83131921    -0.02620
C1104       C  0.61889078  0.64355566  0.87301222     0.07060
C1105       C  0.64866065  0.64956663  0.87615082    -0.02740
C1106       C  0.65724150  0.63388902  0.83979509    -0.02740
C1107       C  0.63496308  0.60897570  0.80803431     0.07190
C1108       C  0.60547468  0.60261672  0.80978000    -0.02930
Br1109     Br  0.57207938  0.56261544  0.80729928    -0.01480
Br1110     Br  0.56628225  0.62469155  0.80143283    -0.01550
Br1111     Br  0.69826833  0.64407249  0.83906169    -0.01510
Br1112     Br  0.67767899  0.67886273  0.92828105    -0.01500
C1113       C  0.64179545  0.64419487  0.30111737    -0.02620
C1114       C  0.61517414  0.64479019  0.30613002     0.07060
C1115       C  0.59807444  0.63258634  0.35500692    -0.02740
C1116       C  0.60583393  0.61811859  0.39583909    -0.02740
C1117       C  0.63241979  0.61685962  0.39142303     0.07190
C1118       C  0.65061328  0.63093069  0.34347326    -0.02930
Br1119     Br  0.68770998  0.63229990  0.33494201    -0.01480
Br1120     Br  0.66608238  0.66142759  0.23476457    -0.01550
Br1121     Br  0.57622189  0.59705038  0.45296089    -0.01510
Br1122     Br  0.56138006  0.63265805  0.36249644    -0.01500
C1123       C  0.51562664  0.48562082  0.63811072    -0.02620
C1124       C  0.53005386  0.51559162  0.65467866     0.07060
C1125       C  0.51683490  0.52349363  0.69565245    -0.02740
C1126       C  0.49759055  0.50160951  0.73371584    -0.02740
C1127       C  0.48122008  0.47185631  0.71450102     0.07190
C1128       C  0.49525030  0.46356540  0.67515292    -0.02930
Br1129     Br  0.47793927  0.42201413  0.65906910    -0.01480
Br1130     Br  0.52518172  0.47535294  0.56729328    -0.01550
Br1131     Br  0.49340422  0.51255784  0.80872538    -0.01510
Br1132     Br  0.53033576  0.56470635  0.70406572    -0.01500
C1133       C  0.62009501  0.44112787  0.82764601    -0.02620
C1134       C  0.61179333  0.45659557  0.79022735     0.07060
C1135       C  0.58075583  0.44539378  0.78612244    -0.02740
C1136       C  0.55955100  0.41669233  0.80436021    -0.02740
C1137       C  0.56621635  0.40469187  0.85121377     0.07190
C1138       C  0.59759164  0.41698080  0.86181116    -0.02930
Br1139     Br  0.61014956  0.40158995  0.92220040    -0.01480
Br1140     Br  0.66202596  0.45584012  0.83816617    -0.01550
Br1141     Br  0.52169986  0.39513244  0.76396304    -0.01510
Br1142     Br  0.56665723  0.47207715  0.78561232    -0.01500
C1143       C  0.60796608  0.44798991  0.35161865    -0.02620
C1144       C  0.61380979  0.47701712  0.36208735     0.07060
C1145       C  0.59647962  0.48599899  0.33219015    -0.02740
C1146       C  0.57288545  0.46589255  0.29581130    -0.02740
C1147       C  0.56755273  0.43734402  0.28450375     0.07190
C1148       C  0.58530047  0.42853209  0.31242176    -0.02930
Br1149     Br  0.57892172  0.39006412  0.29545952    -0.01480
Br1150     Br  0.63226047  0.43527129  0.38805881    -0.01550
Br1151     Br  0.54713348  0.47745852  0.26147713    -0.01510
Br1152     Br  0.60424679  0.52577462  0.33959875    -0.01500
loop_ 
_geom_bond_atom_site_label_1 
_geom_bond_atom_site_label_2 
_geom_bond_distance 
_geom_bond_site_symmetry_2 
_ccdc_geom_bond_type 
Zr1           O2   2.438       .  S
Zr1           O3   2.480       .  S
Zr1           O4   2.489       .  S
Zr1           O7   2.580       .  S
Zr1           O9   2.427       .  S
Zr1          O10   2.379       .  S
Zr1          O11   2.454       .  S
Zr1          O12   2.401       .  S
O2           H58   0.990       .  S
O2           H66   0.990       .  S
O3           C23   1.288       .  A
O4           C25   1.297       .  A
O5          Zr15   2.394       .  S
O5           C24   1.273       .  A
O6          Zr14   2.383       .  S
O6           C25   1.278       .  A
O7           C24   1.312       .  A
O8          Zr16   2.395       .  S
O8           C23   1.268       .  A
O9          Zr14   2.441       .  S
O9          Zr16   2.361       .  S
O10         Zr15   2.382       .  S
O10         Zr16   2.388       .  S
O10          H45   0.962       .  S
O11         Zr14   2.445       .  S
O11         Zr31   2.385       .  S
O11          H48   0.967       .  S
O12         Zr15   2.403       .  S
O12         Zr31   2.419       .  S
Zr13         O38   2.474       .  S
Zr13         O32   2.455       .  S
Zr13         O40   2.377       .  S
Zr13         O28   2.413       .  S
Zr13         O19   2.419       .  S
Zr13         O20   2.409       .  S
Zr13         O21   2.366       .  S
Zr13         O22   2.428       .  S
Zr14         O33   2.434       .  S
Zr14         O26   2.434       .  S
Zr14         O27   2.567       .  S
Zr14         O20   2.344       .  S
Zr14         O21   2.364       .  S
Zr15         O17   2.436       .  S
Zr15         O39   2.441       .  S
Zr15         O41   2.351       .  S
Zr15         O19   2.365       .  S
Zr15         O22   2.388       .  S
Zr16         O42   2.438       .  S
Zr16         O43   2.444       .  S
Zr16         O18   2.440       .  S
Zr16         O19   2.390       .  S
Zr16         O20   2.389       .  S
O17          H54   0.990       .  S
O18          H49   0.990       .  S
O18          H63   0.990       .  S
O20          H46   0.961       .  S
O21         Zr31   2.392       .  S
O22         Zr31   2.357       .  S
O22          H47   0.968       .  S
C23        C1144   1.502       .  S
C24        C1117   1.545       .  S
C25        C1094   1.470       .  S
O26          H62   0.990       .  S
O27          C29   1.305       .  A
O28          C29   1.274       .  A
C29        C1134   1.531       .  S
O30         Zr31   2.440       .  S
O30          H59   0.990       .  S
Zr31         O34   2.436       .  S
Zr31         O35   2.438       .  S
Zr31         O36   2.454       .  S
O32          C37   1.292       .  A
O33          H50   0.990       .  S
O33          H65   0.991       .  S
O34          H51   0.990       .  S
O35          H55   0.990       .  S
O35          H64   0.990       .  S
O36          C37   1.288       .  A
C37        C1107   1.500       .  S
O38          H57   0.983       .  S
O38          H61   0.987       .  S
O39          H53   0.989       .  S
O39          H60   0.990       .  S
O40          C44   1.262       .  A
O41          C44   1.253       .  A
O42          H52   0.990       .  S
O43          H56   0.990       .  S
C44        C1124   1.439       .  S
Zr67         O68   2.440       .  S
Zr67         O69   2.509       .  S
Zr67         O70   2.478       .  S
Zr67         O73   2.546       .  S
Zr67         O75   2.411       .  S
Zr67         O76   2.372       .  S
Zr67         O77   2.453       .  S
Zr67         O78   2.414       .  S
O68         H124   0.990       .  S
O68         H132   0.990       .  S
O69          C89   1.292       .  A
O70          C91   1.294       .  A
O71         Zr81   2.368       .  S
O71          C90   1.269       .  A
O72         Zr80   2.387       .  S
O72          C91   1.277       .  A
O73          C90   1.308       .  A
O74         Zr82   2.383       .  S
O74          C89   1.259       .  A
O75         Zr80   2.432       .  S
O75         Zr82   2.352       .  S
O76         Zr81   2.406       .  S
O76         Zr82   2.404       .  S
O76         H111   0.965       .  S
O77         Zr80   2.440       .  S
O77         Zr97   2.397       .  S
O77         H114   0.965       .  S
O78         Zr81   2.396       .  S
O78         Zr97   2.429       .  S
Zr79        O104   2.448       .  S
Zr79         O98   2.424       .  S
Zr79        O106   2.348   1_556  S
Zr79         O94   2.427       .  S
Zr79         O85   2.404   1_556  S
Zr79         O86   2.384   1_556  S
Zr79         O87   2.358       .  S
Zr79         O88   2.396   1_556  S
Zr80         O99   2.434   1_554  S
Zr80         O92   2.435       .  S
Zr80         O93   2.526   1_554  S
Zr80         O86   2.372       .  S
Zr80         O87   2.383   1_554  S
Zr81         O83   2.436       .  S
Zr81        O105   2.441       .  S
Zr81        O107   2.416       .  S
Zr81         O85   2.432       .  S
Zr81         O88   2.416       .  S
Zr82        O108   2.438       .  S
Zr82        O109   2.443       .  S
Zr82         O84   2.454       .  S
Zr82         O85   2.366       .  S
Zr82         O86   2.374       .  S
O83         H120   0.990       .  S
O84         H115   0.987       .  S
O84         H129   0.989       .  S
O86         H112   0.959       .  S
O87         Zr97   2.407   1_556  S
O88         Zr97   2.367       .  S
O88         H113   0.964       .  S
C89        C1084   1.511       .  S
C90        C1114   1.510       .  S
C91        C1054   1.464       .  S
O92         H128   0.989       .  S
O93          C95   1.301       .  A
O94          C95   1.280       .  A
C95        C1077   1.503       .  S
O96         Zr97   2.441       .  S
O96         H125   0.990       .  S
Zr97        O100   2.437   1_554  S
Zr97        O101   2.438       .  S
Zr97        O102   2.462   1_554  S
O98         C103   1.285       .  A
O99         H116   0.990       .  S
O99         H131   0.991       .  S
O100        H117   0.990       .  S
O101        H121   0.990       .  S
O101        H130   0.990       .  S
O102        C103   1.286       .  A
C103       C1104   1.503       .  S
O104        H123   0.987       .  S
O104        H127   0.989       .  S
O105        H119   0.990       .  S
O105        H126   0.990       .  S
O106        C110   1.254       .  A
O107        C110   1.255       .  A
O108        H118   0.990       .  S
O109        H122   0.990       .  S
C110       C1067   1.425   1_554  S
Zr133       O134   2.438       .  S
Zr133       O135   2.433       .  S
Zr133       O136   2.449       .  S
Zr133       O139   2.586       .  S
Zr133       O141   2.418       .  S
Zr133       O142   2.378       .  S
Zr133       O143   2.443       .  S
Zr133       O144   2.387       .  S
O134        H190   0.990       .  S
O134        H198   0.991       .  S
O135        C155   1.285       .  A
O136        C157   1.290       .  A
O137       Zr147   2.384       .  S
O137        C156   1.274       .  A
O138       Zr146   2.410       .  S
O138        C157   1.280       .  A
O139        C156   1.315       .  A
O140       Zr148   2.397       .  S
O140        C155   1.267       .  A
O141       Zr146   2.415       .  S
O141       Zr148   2.336       .  S
O142       Zr147   2.403       .  S
O142       Zr148   2.405       .  S
O142        H177   0.965       .  S
O143       Zr146   2.449       .  S
O143       Zr163   2.390       .  S
O143        H180   0.967       .  S
O144       Zr147   2.405       .  S
O144       Zr163   2.411       .  S
Zr145       O170   2.430       .  S
Zr145       O164   2.471       .  S
Zr145       O172   2.381   1_554  S
Zr145       O160   2.397       .  S
Zr145       O151   2.398   1_554  S
Zr145       O152   2.407   1_554  S
Zr145       O153   2.359       .  S
Zr145       O154   2.376   1_554  S
Zr146       O165   2.435   1_556  S
Zr146       O158   2.436   1_556  S
Zr146       O159   2.545   1_556  S
Zr146       O152   2.372       .  S
Zr146       O153   2.385   1_556  S
Zr147       O149   2.432       .  S
Zr147       O171   2.433       .  S
Zr147       O173   2.428       .  S
Zr147       O151   2.414       .  S
Zr147       O154   2.406       .  S
Zr148       O174   2.437       .  S
Zr148       O175   2.433       .  S
Zr148       O150   2.442       .  S
Zr148       O151   2.367       .  S
Zr148       O152   2.390       .  S
O149        H186   0.990       .  S
O150        H181   0.989       .  S
O150        H195   0.991       .  S
O152        H178   0.963   1_556  S
O153       Zr163   2.398   1_554  S
O154       Zr163   2.380       .  S
O154        H179   0.963       .  S
C155       C1044   1.485       .  S
C156       C1014   1.544       .  S
C157        C997   1.474       .  S
O158        H194   0.990   1_554  S
O159        C161   1.299       .  A
O160        C161   1.279       .  A
C161       C1034   1.529       .  S
O162       Zr163   2.440       .  S
O162        H191   0.990       .  S
Zr163       O166   2.437   1_556  S
Zr163       O167   2.437       .  S
Zr163       O168   2.423   1_556  S
O164        C169   1.290       .  A
O165        H182   0.990       .  S
O165        H197   0.990       .  S
O166        H183   0.990       .  S
O167        H187   0.990       .  S
O167        H196   0.990       .  S
O168        C169   1.281       .  A
C169       C1004   1.484       .  S
O170        H189   0.986       .  S
O170        H193   0.988       .  S
O171        H185   0.990       .  S
O171        H192   0.990       .  S
O172        C176   1.261       .  A
O173        C176   1.257       .  A
O174        H184   0.990       .  S
O175        H188   0.991       .  S
C176       C1024   1.433   1_556  S
Zr199       O200   2.439       .  S
Zr199       O201   2.460       .  S
Zr199       O202   2.479       .  S
Zr199       O205   2.535       .  S
Zr199       O207   2.405       .  S
Zr199       O208   2.387       .  S
Zr199       O209   2.436       .  S
Zr199       O210   2.398       .  S
O200        H256   0.991       .  S
O200        H264   0.989       .  S
O201        C221   1.288       .  A
O202        C223   1.293       .  A
O203       Zr213   2.441       .  S
O203        C222   1.284       .  A
O204       Zr212   2.369       .  S
O204        C223   1.273       .  A
O205        C222   1.305       .  A
O206       Zr214   2.397       .  S
O206        C221   1.268       .  A
O207       Zr212   2.415       .  S
O207       Zr214   2.357       .  S
O208       Zr213   2.379       .  S
O208       Zr214   2.388       .  S
O208        H243   0.967       .  S
O209       Zr212   2.427       .  S
O209       Zr229   2.400       .  S
O209        H246   0.964       .  S
O210       Zr213   2.397       .  S
O210       Zr229   2.417       .  S
Zr211       O236   2.447       .  S
Zr211       O230   2.452       .  S
Zr211       O238   2.391       .  S
Zr211       O226   2.443       .  S
Zr211       O217   2.484       .  S
Zr211       O218   2.396       .  S
Zr211       O219   2.364       .  S
Zr211       O220   2.468       .  S
Zr212       O231   2.432       .  S
Zr212       O224   2.435       .  S
Zr212       O225   2.477       .  S
Zr212       O218   2.393       .  S
Zr212       O219   2.387       .  S
Zr213       O215   2.429   1_655  S
Zr213       O237   2.437       .  S
Zr213       O239   2.377       .  S
Zr213       O217   2.397       .  S
Zr213       O220   2.408       .  S
Zr214       O240   2.437       .  S
Zr214       O241   2.434       .  S
Zr214       O216   2.436       .  S
Zr214       O217   2.374       .  S
Zr214       O218   2.381       .  S
O215        H252   0.991       .  S
O216        H247   0.989       .  S
O216        H261   0.990       .  S
O218        H244   0.960       .  S
O219       Zr229   2.408       .  S
O220       Zr229   2.371       .  S
O220        H245   0.969       .  S
C221        C977   1.494       .  S
C222       C1017   1.548   1_655  S
C223       C1097   1.467       .  S
O224        H260   0.991       .  S
O225        C227   1.286       .  A
O226        C227   1.280       .  A
C227        C967   1.506       .  S
O228       Zr229   2.440       .  S
O228        H257   0.990       .  S
Zr229       O232   2.436       .  S
Zr229       O233   2.437       .  S
Zr229       O234   2.447       .  S
O230        C235   1.288       .  A
O231        H248   0.990       .  S
O231        H263   0.990       .  S
O232        H249   0.990       .  S
O233        H253   0.989   1_655  S
O233        H262   0.991   1_655  S
O234        C235   1.286       .  A
C235       C1007   1.489       .  S
O236        H255   0.990       .  S
O236        H259   0.991       .  S
O237        H251   0.990       .  S
O237        H258   0.990       .  S
O238        C242   1.251       .  A
O239        C242   1.258       .  A
O240        H250   0.990       .  S
O241        H254   0.990       .  S
C242        C987   1.400       .  S
Zr265       O266   2.429       .  S
Zr265       O267   2.481       .  S
Zr265       O268   2.488       .  S
Zr265       O271   2.565       .  S
Zr265       O273   2.421       .  S
Zr265       O274   2.382       .  S
Zr265       O275   2.458       .  S
Zr265       O276   2.428       .  S
O266        H322   0.988       .  S
O266        H330   0.991       .  S
O267        C287   1.292       .  A
O268        C289   1.298       .  A
O269       Zr279   2.417       .  S
O269        C288   1.279       .  A
O270       Zr278   2.411       .  S
O270        C289   1.282       .  A
O271        C288   1.310       .  A
O272       Zr280   2.366       .  S
O272        C287   1.264       .  A
O273       Zr278   2.428       .  S
O273       Zr280   2.350       .  S
O274       Zr279   2.371       .  S
O274       Zr280   2.383       .  S
O274        H309   0.967       .  S
O275       Zr278   2.436       .  S
O275       Zr295   2.428       .  S
O275        H312   0.966       .  S
O276       Zr279   2.365       .  S
O276       Zr295   2.450       .  S
Zr277       O302   2.433       .  S
Zr277       O296   2.431       .  S
Zr277       O304   2.337       .  S
Zr277       O292   2.446       .  S
Zr277       O283   2.381       .  S
Zr277       O284   2.364       .  S
Zr277       O285   2.341       .  S
Zr277       O286   2.410       .  S
Zr278       O297   2.433       .  S
Zr278       O290   2.428       .  S
Zr278       O291   2.502       .  S
Zr278       O284   2.394       .  S
Zr278       O285   2.405       .  S
Zr279       O281   2.433       .  S
Zr279       O303   2.437       .  S
Zr279       O305   2.368       .  S
Zr279       O283   2.371       .  S
Zr279       O286   2.402       .  S
Zr280       O306   2.438       .  S
Zr280       O307   2.432       .  S
Zr280       O282   2.441       .  S
Zr280       O283   2.359       .  S
Zr280       O284   2.362       .  S
O281        H318   0.991       .  S
O282        H313   0.988       .  S
O282        H327   0.991       .  S
O284        H310   0.959       .  S
O285       Zr295   2.418       .  S
O286       Zr295   2.384       .  S
O286        H311   0.957       .  S
C287        C954   1.483       .  S
C288        C927   1.539       .  S
C289        C907   1.504       .  S
O290        H326   0.991       .  S
O291        C293   1.293       .  A
O292        C293   1.281       .  A
C293        C947   1.510       .  S
O294       Zr295   2.435       .  S
O294        H323   0.990       .  S
Zr295       O298   2.434       .  S
Zr295       O299   2.436       .  S
Zr295       O300   2.495       .  S
O296        C301   1.281       .  A
O297        H314   0.990       .  S
O297        H329   0.990       .  S
O298        H315   0.990       .  S
O299        H319   0.990       .  S
O299        H328   0.990       .  S
O300        C301   1.293       .  A
C301        C917   1.520       .  S
O302        H321   0.989       .  S
O302        H325   0.990       .  S
O303        H317   0.991       .  S
O303        H324   0.988       .  S
O304        C308   1.251       .  A
O305        C308   1.271       .  A
O306        H316   0.990       .  S
O307        H320   0.989       .  S
C308        C934   1.450       .  S
Zr331       O332   2.437       .  S
Zr331       O333   2.458       .  S
Zr331       O334   2.471       .  S
Zr331       O337   2.582       .  S
Zr331       O339   2.417       .  S
Zr331       O340   2.376       .  S
Zr331       O341   2.456       .  S
Zr331       O342   2.402       .  S
O332        H388   0.991       .  S
O332        H396   0.989       .  S
O333        C353   1.287       .  A
O334        C355   1.293       .  A
O335       Zr345   2.389       .  S
O335        C354   1.274       .  A
O336       Zr344   2.381       .  S
O336        C355   1.277       .  A
O337        C354   1.314       .  A
O338       Zr346   2.389       .  S
O338        C353   1.264       .  A
O339       Zr344   2.425       .  S
O339       Zr346   2.358       .  S
O340       Zr345   2.374       .  S
O340       Zr346   2.408       .  S
O340        H375   0.966       .  S
O341       Zr344   2.444       .  S
O341       Zr361   2.408       .  S
O341        H378   0.965       .  S
O342       Zr345   2.397       .  S
O342       Zr361   2.434       .  S
Zr343       O368   2.452       .  S
Zr343       O362   2.434       .  S
Zr343       O370   2.380       .  S
Zr343       O358   2.421       .  S
Zr343       O349   2.444       .  S
Zr343       O350   2.383       .  S
Zr343       O351   2.361       .  S
Zr343       O352   2.456       .  S
Zr344       O363   2.433       .  S
Zr344       O356   2.434       .  S
Zr344       O357   2.541       .  S
Zr344       O350   2.369       .  S
Zr344       O351   2.372       .  S
Zr345       O347   2.433   1_565  S
Zr345       O369   2.438       .  S
Zr345       O371   2.328       .  S
Zr345       O349   2.378       .  S
Zr345       O352   2.395       .  S
Zr346       O372   2.442       .  S
Zr346       O373   2.439       .  S
Zr346       O348   2.452       .  S
Zr346       O349   2.365       .  S
Zr346       O350   2.384       .  S
O347        H384   0.990       .  S
O348        H379   0.989       .  S
O348        H393   0.990       .  S
O350        H376   0.962       .  S
O351       Zr361   2.398       .  S
O352       Zr361   2.348       .  S
O352        H377   0.965       .  S
C353        C884   1.483       .  S
C354        C924   1.534       .  S
C355       C1057   1.467       .  S
O356        H392   0.991       .  S
O357        C359   1.296       .  A
O358        C359   1.273       .  A
C359        C877   1.526       .  S
O360       Zr361   2.439       .  S
O360        H389   0.990       .  S
Zr361       O364   2.436       .  S
Zr361       O365   2.437       .  S
Zr361       O366   2.487       .  S
O362        C367   1.285       .  A
O363        H380   0.991       .  S
O363        H395   0.990       .  S
O364        H381   0.990       .  S
O365        H385   0.990   1_565  S
O365        H394   0.990   1_565  S
O366        C367   1.292       .  A
C367        C914   1.522   1_565  S
O368        H387   0.987       .  S
O368        H391   0.980       .  S
O369        H383   0.987       .  S
O369        H390   0.992       .  S
O370        C374   1.255       .  A
O371        C374   1.249       .  A
O372        H382   0.989       .  S
O373        H386   0.990       .  S
C374        C897   1.407   1_565  S
Zr397       O398   2.438       .  S
Zr397       O399   2.456       .  S
Zr397       O400   2.501       .  S
Zr397       O403   2.582       .  S
Zr397       O405   2.410       .  S
Zr397       O406   2.379       .  S
Zr397       O407   2.447       .  S
Zr397       O408   2.403       .  S
O398        H454   0.991       .  S
O398        H462   0.989       .  S
O399        C419   1.288       .  A
O400        C421   1.299       .  A
O401       Zr411   2.411       .  S
O401        C420   1.277       .  A
O402       Zr410   2.369       .  S
O402        C421   1.273       .  A
O403        C420   1.314       .  A
O404       Zr412   2.391       .  S
O404        C419   1.266       .  A
O405       Zr410   2.415       .  S
O405       Zr412   2.357       .  S
O406       Zr411   2.372       .  S
O406       Zr412   2.389       .  S
O406        H441   0.967       .  S
O407       Zr410   2.435       .  S
O407       Zr427   2.411       .  S
O407        H444   0.965       .  S
O408       Zr411   2.394       .  S
O408       Zr427   2.429       .  S
Zr409       O434   2.450       .  S
Zr409       O428   2.465       .  S
Zr409       O436   2.407       .  S
Zr409       O424   2.444       .  S
Zr409       O415   2.485       .  S
Zr409       O416   2.398       .  S
Zr409       O417   2.363       .  S
Zr409       O418   2.469       .  S
Zr410       O429   2.432       .  S
Zr410       O422   2.435       .  S
Zr410       O423   2.493       .  S
Zr410       O416   2.386       .  S
Zr410       O417   2.390       .  S
Zr411       O413   2.436       .  S
Zr411       O435   2.441       .  S
Zr411       O437   2.354       .  S
Zr411       O415   2.400       .  S
Zr411       O418   2.413       .  S
Zr412       O438   2.438       .  S
Zr412       O439   2.435       .  S
Zr412       O414   2.435       .  S
Zr412       O415   2.362       .  S
Zr412       O416   2.381       .  S
O413        H450   0.990       .  S
O414        H445   0.989       .  S
O414        H459   0.989       .  S
O416        H442   0.961       .  S
O417       Zr427   2.410       .  S
O418       Zr427   2.360       .  S
O418        H443   0.966       .  S
C419        C957   1.491       .  S
C420        C867   1.556       .  S
C421        C847   1.476       .  S
O422        H458   0.991       .  S
O423        C425   1.289       .  A
O424        C425   1.280       .  A
C425        C944   1.512       .  S
O426       Zr427   2.440       .  S
O426        H455   0.990       .  S
Zr427       O430   2.436       .  S
Zr427       O431   2.438       .  S
Zr427       O432   2.479       .  S
O428        C433   1.288       .  A
O429        H446   0.990       .  S
O429        H461   0.990       .  S
O430        H447   0.990       .  S
O431        H451   0.990       .  S
O431        H460   0.991       .  S
O432        C433   1.290       .  A
C433        C854   1.521       .  S
O434        H453   0.988       .  S
O434        H457   0.992       .  S
O435        H449   0.985       .  S
O435        H456   0.991       .  S
O436        C440   1.246       .  A
O437        C440   1.253       .  A
O438        H448   0.990       .  S
O439        H452   0.990       .  S
C440        C894   1.408       .  S
Zr463       O464   2.437       .  S
Zr463       O465   2.465       .  S
Zr463       O466   2.461       .  S
Zr463       O469   2.584       .  S
Zr463       O471   2.410       .  S
Zr463       O472   2.365       .  S
Zr463       O473   2.457       .  S
Zr463       O474   2.406       .  S
O464        H520   0.990       .  S
O464        H528   0.991       .  S
O465        C485   1.286       .  A
O466        C487   1.293       .  A
O467       Zr477   2.389       .  S
O467        C486   1.272       .  A
O468       Zr476   2.390       .  S
O468        C487   1.274       .  A
O469        C486   1.315       .  A
O470       Zr478   2.395       .  S
O470        C485   1.266       .  A
O471       Zr476   2.413       .  S
O471       Zr478   2.353       .  S
O472       Zr477   2.383       .  S
O472       Zr478   2.403       .  S
O472        H507   0.965       .  S
O473       Zr476   2.439       .  S
O473       Zr493   2.420       .  S
O473        H510   0.967       .  S
O474       Zr477   2.391       .  S
O474       Zr493   2.442       .  S
Zr475       O500   2.422       .  S
Zr475       O494   2.424       .  S
Zr475       O502   2.358       .  S
Zr475       O490   2.437       .  S
Zr475       O481   2.413       .  S
Zr475       O482   2.378       .  S
Zr475       O483   2.354       .  S
Zr475       O484   2.394       .  S
Zr476       O495   2.434       .  S
Zr476       O488   2.435       .  S
Zr476       O489   2.509       .  S
Zr476       O482   2.371       .  S
Zr476       O483   2.387       .  S
Zr477       O479   2.435   1_565  S
Zr477       O501   2.440       .  S
Zr477       O503   2.376   1_565  S
Zr477       O481   2.438       .  S
Zr477       O484   2.420       .  S
Zr478       O504   2.440       .  S
Zr478       O505   2.438       .  S
Zr478       O480   2.455       .  S
Zr478       O481   2.369       .  S
Zr478       O482   2.382       .  S
O479        H516   0.990       .  S
O480        H511   0.987       .  S
O480        H525   0.991       .  S
O482        H508   0.960       .  S
O483       Zr493   2.397       .  S
O484       Zr493   2.351       .  S
O484        H509   0.962       .  S
C485        C887   1.500       .  S
C486        C864   1.537       .  S
C487        C994   1.480       .  S
O488        H524   0.991       .  S
O489        C491   1.293       .  A
O490        C491   1.285       .  A
C491        C874   1.519       .  S
O492       Zr493   2.440       .  S
O492        H521   0.990       .  S
Zr493       O496   2.437       .  S
Zr493       O497   2.437       .  S
Zr493       O498   2.500       .  S
O494        C499   1.282       .  A
O495        H512   0.990       .  S
O495        H527   0.990       .  S
O496        H513   0.990       .  S
O497        H517   0.990       .  S
O497        H526   0.990       .  S
O498        C499   1.293       .  A
C499        C857   1.527       .  S
O500        H519   0.986       .  S
O500        H523   0.985       .  S
O501        H515   0.990       .  S
O501        H522   0.990       .  S
O502        C506   1.261       .  A
O503        C506   1.256   1_545  A
O504        H514   0.990       .  S
O505        H518   0.990       .  S
C506        C937   1.430   1_565  S
Zr529       O530   2.438       .  S
Zr529       O531   2.502       .  S
Zr529       O532   2.499       .  S
Zr529       O535   2.552       .  S
Zr529       O537   2.395       .  S
Zr529       O538   2.375       .  S
Zr529       O539   2.442       .  S
Zr529       O540   2.432       .  S
O530        H586   0.990       .  S
O530        H594   0.991       .  S
O531        C551   1.298       .  A
O532        C553   1.298       .  A
O533       Zr543   2.418       .  S
O533        C552   1.280       .  A
O534       Zr542   2.385       .  S
O534        C553   1.277       .  A
O535        C552   1.310       .  A
O536       Zr544   2.385       .  S
O536        C551   1.274       .  A
O537       Zr542   2.413       .  S
O537       Zr544   2.386       .  S
O538       Zr543   2.384       .  S
O538       Zr544   2.361       .  S
O538        H573   0.965       .  S
O539       Zr542   2.422       .  S
O539       Zr559   2.408       .  S
O539        H576   0.963       .  S
O540       Zr543   2.391       .  S
O540       Zr559   2.431       .  S
Zr541       O566   2.433       .  S
Zr541       O560   2.453       .  S
Zr541       O568   2.377       .  S
Zr541       O556   2.464       .  S
Zr541       O547   2.417       .  S
Zr541       O548   2.374       .  S
Zr541       O549   2.355       .  S
Zr541       O550   2.396       .  S
Zr542       O561   2.434       .  S
Zr542       O554   2.434       .  S
Zr542       O555   2.477       .  S
Zr542       O548   2.367       .  S
Zr542       O549   2.385       .  S
Zr543       O545   2.433       .  S
Zr543       O567   2.435       .  S
Zr543       O569   2.414       .  S
Zr543       O547   2.381       .  S
Zr543       O550   2.357       .  S
Zr544       O570   2.441       .  S
Zr544       O571   2.432       .  S
Zr544       O546   2.428       .  S
Zr544       O547   2.372       .  S
Zr544       O548   2.370       .  S
O545        H582   0.990       .  S
O546        H577   0.989       .  S
O546        H591   0.990       .  S
O548        H574   0.963       .  S
O549       Zr559   2.401       .  S
O550       Zr559   2.362       .  S
O550        H575   0.963       .  S
C551       C1087   1.509       .  S
C552        C834   1.530       .  S
C553        C817   1.478       .  S
O554        H590   0.989       .  S
O555        C557   1.291       .  A
O556        C557   1.290       .  A
C557       C1074   1.508       .  S
O558       Zr559   2.439       .  S
O558        H587   0.990       .  S
Zr559       O562   2.436       .  S
Zr559       O563   2.437       .  S
Zr559       O564   2.479       .  S
O560        C565   1.281       .  A
O561        H578   0.989       .  S
O561        H593   0.991       .  S
O562        H579   0.990       .  S
O563        H583   0.990       .  S
O563        H592   0.990       .  S
O564        C565   1.285       .  A
C565        C824   1.523       .  S
O566        H585   0.989       .  S
O566        H589   0.987       .  S
O567        H581   0.989       .  S
O567        H588   0.991       .  S
O568        C572   1.271       .  A
O569        C572   1.289       .  A
O570        H580   0.991       .  S
O571        H584   0.990       .  S
C572       C1127   1.463       .  S
Zr595       O596   2.439       .  S
Zr595       O597   2.502       .  S
Zr595       O598   2.512       .  S
Zr595       O601   2.568       .  S
Zr595       O603   2.417       .  S
Zr595       O604   2.371       .  S
Zr595       O605   2.450       .  S
Zr595       O606   2.418       .  S
O596        H652   0.990       .  S
O596        H660   0.991       .  S
O597        C617   1.297       .  A
O598        C619   1.301       .  A
O599       Zr609   2.420       .  S
O599        C618   1.282       .  A
O600       Zr608   2.373       .  S
O600        C619   1.275       .  A
O601        C618   1.312       .  A
O602       Zr610   2.386       .  S
O602        C617   1.274       .  A
O603       Zr608   2.427       .  S
O603       Zr610   2.370       .  S
O604       Zr609   2.368       .  S
O604       Zr610   2.375       .  S
O604        H639   0.964       .  S
O605       Zr608   2.445       .  S
O605       Zr625   2.420       .  S
O605        H642   0.965       .  S
O606       Zr609   2.391       .  S
O606       Zr625   2.426       .  S
Zr607       O632   2.400       .  S
Zr607       O626   2.469       .  S
Zr607       O634   2.321       .  S
Zr607       O622   2.447       .  S
Zr607       O613   2.405   1_556  S
Zr607       O614   2.391   1_556  S
Zr607       O615   2.341       .  S
Zr607       O616   2.378   1_556  S
Zr608       O627   2.433   1_554  S
Zr608       O620   2.433       .  S
Zr608       O621   2.515   1_554  S
Zr608       O614   2.373       .  S
Zr608       O615   2.400   1_554  S
Zr609       O611   2.435       .  S
Zr609       O633   2.434       .  S
Zr609       O635   2.405       .  S
Zr609       O613   2.363       .  S
Zr609       O616   2.361       .  S
Zr610       O636   2.436       .  S
Zr610       O637   2.436       .  S
Zr610       O612   2.439       .  S
Zr610       O613   2.371       .  S
Zr610       O614   2.371       .  S
O611        H648   0.991       .  S
O612        H643   0.990       .  S
O612        H657   0.990       .  S
O614        H640   0.963   1_554  S
O615       Zr625   2.403   1_556  S
O616       Zr625   2.366       .  S
O616        H641   0.963   1_554  S
C617       C1147   1.488       .  S
C618        C837   1.551       .  S
C619        C844   1.480       .  S
O620        H656   0.991       .  S
O621        C623   1.293       .  A
O622        C623   1.282       .  A
C623       C1137   1.538       .  S
O624       Zr625   2.440       .  S
O624        H653   0.990       .  S
Zr625       O628   2.436   1_554  S
Zr625       O629   2.437       .  S
Zr625       O630   2.490   1_554  S
O626        C631   1.288       .  A
O627        H644   0.990       .  S
O627        H659   0.990       .  S
O628        H645   0.990       .  S
O629        H649   0.990       .  S
O629        H658   0.990       .  S
O630        C631   1.292       .  A
C631        C827   1.527       .  S
O632        H651   0.987       .  S
O632        H655   0.989       .  S
O633        H647   0.988       .  S
O633        H654   0.990       .  S
O634        C638   1.259       .  A
O635        C638   1.285   1_554  A
O636        H646   0.991       .  S
O637        H650   0.990       .  S
C638       C1064   1.429       .  S
Zr661       O662   2.437       .  S
Zr661       O663   2.482       .  S
Zr661       O664   2.488       .  S
Zr661       O667   2.577       .  S
Zr661       O669   2.423       .  S
Zr661       O670   2.378       .  S
Zr661       O671   2.460       .  S
Zr661       O672   2.409       .  S
O662        H718   0.991       .  S
O662        H726   0.989       .  S
O663        C683   1.292       .  A
O664        C685   1.297       .  A
O665       Zr675   2.394       .  S
O665        C684   1.274       .  A
O666       Zr674   2.380       .  S
O666        C685   1.275       .  A
O667        C684   1.313       .  A
O668       Zr676   2.364       .  S
O668        C683   1.273       .  A
O669       Zr674   2.423       .  S
O669       Zr676   2.355       .  S
O670       Zr675   2.366       .  S
O670       Zr676   2.409       .  S
O670        H705   0.964       .  S
O671       Zr674   2.443       .  S
O671       Zr691   2.421       .  S
O671        H708   0.965       .  S
O672       Zr675   2.391       .  S
O672       Zr691   2.444       .  S
Zr673       O698   2.434       .  S
Zr673       O692   2.435       .  S
Zr673       O700   2.369       .  S
Zr673       O688   2.441       .  S
Zr673       O679   2.446       .  S
Zr673       O680   2.387       .  S
Zr673       O681   2.359       .  S
Zr673       O682   2.468       .  S
Zr674       O693   2.433       .  S
Zr674       O686   2.435       .  S
Zr674       O687   2.527       .  S
Zr674       O680   2.368       .  S
Zr674       O681   2.385       .  S
Zr675       O677   2.433       .  S
Zr675       O699   2.437       .  S
Zr675       O701   2.308       .  S
Zr675       O679   2.384       .  S
Zr675       O682   2.414       .  S
Zr676       O702   2.433       .  S
Zr676       O703   2.444       .  S
Zr676       O678   2.441       .  S
Zr676       O679   2.358       .  S
Zr676       O680   2.358       .  S
O677        H714   0.990       .  S
O678        H709   0.991       .  S
O678        H723   0.990       .  S
O680        H706   0.963       .  S
O681       Zr691   2.398       .  S
O682       Zr691   2.351       .  S
O682        H707   0.972       .  S
C683       C1047   1.473       .  S
C684        C804   1.534       .  S
C685        C814   1.472       .  S
O686        H722   0.991       .  S
O687        C689   1.295       .  A
O688        C689   1.283       .  A
C689       C1037   1.531       .  S
O690       Zr691   2.440       .  S
O690        H719   0.990       .  S
Zr691       O694   2.436       .  S
Zr691       O695   2.437       .  S
Zr691       O696   2.510       .  S
O692        C697   1.283       .  A
O693        H710   0.991       .  S
O693        H725   0.990       .  S
O694        H711   0.990       .  S
O695        H715   0.990       .  S
O695        H724   0.990       .  S
O696        C697   1.296       .  A
C697        C797   1.527       .  S
O698        H717   0.988       .  S
O698        H721   0.987       .  S
O699        H713   0.989       .  S
O699        H720   0.990       .  S
O700        C704   1.245       .  A
O701        C704   1.242       .  A
O702        H712   0.992       .  S
O703        H716   0.990       .  S
C704        C984   1.402       .  S
Zr727       O728   2.438       .  S
Zr727       O729   2.474       .  S
Zr727       O730   2.492       .  S
Zr727       O733   2.559       .  S
Zr727       O735   2.403       .  S
Zr727       O736   2.375       .  S
Zr727       O737   2.439       .  S
Zr727       O738   2.417       .  S
O728        H784   0.990       .  S
O728        H792   0.990       .  S
O729        C749   1.291       .  A
O730        C751   1.296       .  A
O731       Zr741   2.434       .  S
O731        C750   1.285       .  A
O732       Zr740   2.395       .  S
O732        C751   1.278       .  A
O733        C750   1.310       .  A
O734       Zr742   2.400       .  S
O734        C749   1.271       .  A
O735       Zr740   2.407       .  S
O735       Zr742   2.375       .  S
O736       Zr741   2.375       .  S
O736       Zr742   2.372       .  S
O736        H771   0.966       .  S
O737       Zr740   2.423       .  S
O737       Zr757   2.396   1_556  S
O737        H774   0.961       .  S
O738       Zr741   2.390       .  S
O738       Zr757   2.429   1_556  S
Zr739       O764   2.443       .  S
Zr739       O758   2.466       .  S
Zr739       O766   2.361       .  S
Zr739       O754   2.462       .  S
Zr739       O745   2.422   1_554  S
Zr739       O746   2.387       .  S
Zr739       O747   2.362       .  S
Zr739       O748   2.387       .  S
Zr740       O759   2.434   1_556  S
Zr740       O752   2.434       .  S
Zr740       O753   2.478   1_556  S
Zr740       O746   2.381   1_556  S
Zr740       O747   2.392   1_556  S
Zr741       O743   2.433   1_655  S
Zr741       O765   2.430   1_655  S
Zr741       O767   2.403   1_556  S
Zr741       O745   2.384       .  S
Zr741       O748   2.368   1_556  S
Zr742       O768   2.441       .  S
Zr742       O769   2.439       .  S
Zr742       O744   2.436       .  S
Zr742       O745   2.388       .  S
Zr742       O746   2.369   1_556  S
O743        H780   0.991       .  S
O744        H775   0.987       .  S
O744        H789   0.992       .  S
O746        H772   0.962       .  S
O747       Zr757   2.404       .  S
O748       Zr757   2.346       .  S
O748        H773   0.961       .  S
C749        C974   1.499       .  S
C750        C807   1.547       .  S
C751        C904   1.474       .  S
O752        H788   0.989       .  S
O753        C755   1.291       .  A
O754        C755   1.287       .  A
C755        C964   1.502       .  S
O756       Zr757   2.440   1_556  S
O756        H785   0.990       .  S
Zr757       O760   2.436       .  S
Zr757       O761   2.439   1_554  S
Zr757       O762   2.469       .  S
O758        C763   1.289       .  A
O759        H776   0.990       .  S
O759        H791   0.990       .  S
O760        H777   0.991       .  S
O761        H781   0.991       .  S
O761        H790   0.989   1_556  S
O762        C763   1.288       .  A
C763        C794   1.520       .  S
O764        H783   0.991       .  S
O764        H787   0.989       .  S
O765        H779   0.987       .  S
O765        H786   0.990   1_455  S
O766        C770   1.270       .  A
O767        C770   1.287       .  A
O768        H778   0.989       .  S
O769        H782   0.990   1_556  S
C770       C1027   1.462   1_655  S
C793        C794   1.425       .  A
C793        C798   1.437   1_655  A
C793       Br800   1.925       .  S
C794        C795   1.405       .  A
C795        C796   1.395   1_655  A
C795       Br802   1.925       .  S
C796        C797   1.416       .  A
C796       Br801   1.907       .  S
C797        C798   1.422       .  A
C798       Br799   1.924       .  S
C803        C804   1.425       .  A
C803        C808   1.437   1_455  A
C803       Br810   1.926       .  S
C804        C805   1.414       .  A
C805        C806   1.429       .  A
C805       Br812   1.929       .  S
C806        C807   1.427   1_455  A
C806       Br811   1.923       .  S
C807        C808   1.420       .  A
C808       Br809   1.925       .  S
C813        C814   1.408       .  A
C813        C818   1.412       .  A
C813       Br820   1.929       .  S
C814        C815   1.410       .  A
C815        C816   1.407       .  A
C815       Br822   1.931       .  S
C816        C817   1.411       .  A
C816       Br821   1.931       .  S
C817        C818   1.414       .  A
C818       Br819   1.927       .  S
C823        C824   1.410       .  A
C823        C828   1.404       .  A
C823       Br830   1.938       .  S
C824        C825   1.426       .  A
C825        C826   1.436       .  A
C825       Br832   1.925       .  S
C826        C827   1.419       .  A
C826       Br831   1.925       .  S
C827        C828   1.415       .  A
C828       Br829   1.903       .  S
C833        C834   1.410       .  A
C833        C838   1.427       .  A
C833       Br840   1.935       .  S
C834        C835   1.424       .  A
C835        C836   1.436       .  A
C835       Br842   1.929       .  S
C836        C837   1.422       .  A
C836       Br841   1.926       .  S
C837        C838   1.435       .  A
C838       Br839   1.925       .  S
C843        C844   1.413       .  A
C843        C848   1.416       .  A
C843       Br850   1.927       .  S
C844        C845   1.411       .  A
C845        C846   1.406       .  A
C845       Br852   1.931       .  S
C846        C847   1.411       .  A
C846       Br851   1.933       .  S
C847        C848   1.410       .  A
C848       Br849   1.927       .  S
C853        C854   1.424       .  A
C853        C858   1.438   1_545  A
C853       Br860   1.925       .  S
C854        C855   1.413       .  A
C855        C856   1.394   1_545  A
C855       Br862   1.916       .  S
C856        C857   1.413       .  A
C856       Br861   1.929       .  S
C857        C858   1.425       .  A
C858       Br859   1.925       .  S
C863        C864   1.430   1_545  A
C863        C868   1.444       .  A
C863       Br870   1.924   1_545  S
C864        C865   1.410       .  A
C865        C866   1.430   1_566  A
C865       Br872   1.937       .  S
C866        C867   1.438       .  A
C866       Br871   1.932       .  S
C867        C868   1.422   1_554  A
C868       Br869   1.936       .  S
C873        C874   1.399       .  A
C873        C878   1.386       .  A
C873       Br880   1.926       .  S
C874        C875   1.431       .  A
C875        C876   1.449       .  A
C875       Br882   1.919       .  S
C876        C877   1.425       .  A
C876       Br881   1.918       .  S
C877        C878   1.402       .  A
C878       Br879   1.914       .  S
C883        C884   1.416       .  A
C883        C888   1.405   1_554  A
C883       Br890   1.929       .  S
C884        C885   1.397   1_554  A
C885        C886   1.406       .  A
C885       Br892   1.940       .  S
C886        C887   1.434       .  A
C886       Br891   1.923       .  S
C887        C888   1.416       .  A
C888       Br889   1.936   1_556  S
C893        C894   1.400       .  A
C893        C898   1.387       .  A
C893       Br900   1.930       .  S
C894        C895   1.396       .  A
C895        C896   1.372       .  A
C895       Br902   1.926       .  S
C896        C897   1.394       .  A
C896       Br901   1.925   1_545  S
C897        C898   1.402       .  A
C898       Br899   1.920       .  S
C903        C904   1.411       .  A
C903        C908   1.409       .  A
C903       Br910   1.932       .  S
C904        C905   1.401       .  A
C905        C906   1.410       .  A
C905       Br912   1.932       .  S
C906        C907   1.424       .  A
C906       Br911   1.927       .  S
C907        C908   1.415       .  A
C908       Br909   1.923       .  S
C913        C914   1.426       .  A
C913        C918   1.435       .  A
C913       Br920   1.927       .  S
C914        C915   1.416       .  A
C915        C916   1.395       .  A
C915       Br922   1.927   1_545  S
C916        C917   1.414       .  A
C916       Br921   1.934       .  S
C917        C918   1.421       .  A
C918       Br919   1.926       .  S
C923        C924   1.422   1_546  A
C923        C928   1.441       .  A
C923       Br930   1.923   1_556  S
C924        C925   1.419   1_564  A
C925        C926   1.425       .  A
C925       Br932   1.931   1_546  S
C926        C927   1.420       .  A
C926       Br931   1.929       .  S
C927        C928   1.422       .  A
C928       Br929   1.923       .  S
C933        C934   1.403       .  A
C933        C938   1.392       .  A
C933       Br940   1.927       .  S
C934        C935   1.407       .  A
C935        C936   1.388       .  A
C935       Br942   1.937       .  S
C936        C937   1.414       .  A
C936       Br941   1.949   1_545  S
C937        C938   1.403       .  A
C938       Br939   1.934       .  S
C943        C944   1.410       .  A
C943        C948   1.419       .  A
C943       Br950   1.929       .  S
C944        C945   1.418       .  A
C945        C946   1.420       .  A
C945       Br952   1.911       .  S
C946        C947   1.409       .  A
C946       Br951   1.928       .  S
C947        C948   1.419       .  A
C948       Br949   1.915       .  S
C953        C954   1.406       .  A
C953        C958   1.411   1_556  A
C953       Br960   1.936       .  S
C954        C955   1.425       .  A
C955        C956   1.399       .  A
C955       Br962   1.934       .  S
C956        C957   1.403   1_556  A
C956       Br961   1.939       .  S
C957        C958   1.428       .  A
C958       Br959   1.930       .  S
C963        C964   1.407       .  A
C963        C968   1.418       .  A
C963       Br970   1.926       .  S
C964        C965   1.415       .  A
C965        C966   1.415       .  A
C965       Br972   1.914       .  S
C966        C967   1.408       .  A
C966       Br971   1.928       .  S
C967        C968   1.419       .  A
C968       Br969   1.916       .  S
C973        C974   1.428       .  A
C973        C978   1.406       .  A
C973       Br980   1.930       .  S
C974        C975   1.413       .  A
C975        C976   1.411       .  A
C975       Br982   1.938       .  S
C976        C977   1.425       .  A
C976       Br981   1.936       .  S
C977        C978   1.404       .  A
C978       Br979   1.940       .  S
C983        C984   1.401   1_655  A
C983        C988   1.385       .  A
C983       Br990   1.929       .  S
C984        C985   1.397       .  A
C985        C986   1.375       .  A
C985       Br992   1.930       .  S
C986        C987   1.390   1_455  A
C986       Br991   1.922       .  S
C987        C988   1.401       .  A
C988       Br989   1.928       .  S
C993        C994   1.402       .  A
C993        C998   1.399       .  A
C993      Br1000   1.924       .  S
C994        C995   1.421       .  A
C995        C996   1.403       .  A
C995      Br1002   1.934       .  S
C996        C997   1.409       .  A
C996      Br1001   1.935       .  S
C997        C998   1.417       .  A
C998       Br999   1.931       .  S
C1003      C1004   1.406       .  A
C1003      C1008   1.412       .  A
C1003     Br1010   1.930       .  S
C1004      C1005   1.413       .  A
C1005      C1006   1.410   1_455  A
C1005     Br1012   1.930       .  S
C1006      C1007   1.409       .  A
C1006     Br1011   1.929       .  S
C1007      C1008   1.418   1_655  A
C1008     Br1009   1.929       .  S
C1013      C1014   1.412       .  A
C1013      C1018   1.435       .  A
C1013     Br1020   1.916       .  S
C1014      C1015   1.427       .  A
C1015      C1016   1.427       .  A
C1015     Br1022   1.929       .  S
C1016      C1017   1.420       .  A
C1016     Br1021   1.931   1_455  S
C1017      C1018   1.435       .  A
C1018     Br1019   1.930       .  S
C1023      C1024   1.424       .  A
C1023      C1028   1.401       .  A
C1023     Br1030   1.925   1_554  S
C1024      C1025   1.407       .  A
C1025      C1026   1.397       .  A
C1025     Br1032   1.914       .  S
C1026      C1027   1.398       .  A
C1026     Br1031   1.914   1_455  S
C1027      C1028   1.397       .  A
C1028     Br1029   1.928       .  S
C1033      C1034   1.400       .  A
C1033      C1038   1.386       .  A
C1033     Br1040   1.926       .  S
C1034      C1035   1.431       .  A
C1035      C1036   1.456       .  A
C1035     Br1042   1.918       .  S
C1036      C1037   1.432       .  A
C1036     Br1041   1.918       .  S
C1037      C1038   1.396       .  A
C1038     Br1039   1.923       .  S
C1043      C1044   1.424       .  A
C1043      C1048   1.420       .  A
C1043     Br1050   1.926       .  S
C1044      C1045   1.394       .  A
C1045      C1046   1.381       .  A
C1045     Br1052   1.923       .  S
C1046      C1047   1.410       .  A
C1046     Br1051   1.924       .  S
C1047      C1048   1.408       .  A
C1048     Br1049   1.924       .  S
C1053      C1054   1.411       .  A
C1053      C1058   1.409       .  A
C1053     Br1060   1.929       .  S
C1054      C1055   1.406       .  A
C1055      C1056   1.401       .  A
C1055     Br1062   1.932       .  S
C1056      C1057   1.411       .  A
C1056     Br1061   1.933       .  S
C1057      C1058   1.408       .  A
C1058     Br1059   1.928       .  S
C1063      C1064   1.398       .  A
C1063      C1068   1.377       .  A
C1063     Br1070   1.941       .  S
C1064      C1065   1.412       .  A
C1065      C1066   1.388       .  A
C1065     Br1072   1.922       .  S
C1066      C1067   1.393       .  A
C1066     Br1071   1.932       .  S
C1067      C1068   1.414       .  A
C1068     Br1069   1.927   1_556  S
C1073      C1074   1.421       .  A
C1073      C1078   1.420       .  A
C1073     Br1080   1.919       .  S
C1074      C1075   1.408       .  A
C1075      C1076   1.417       .  A
C1075     Br1082   1.929       .  S
C1076      C1077   1.417       .  A
C1076     Br1081   1.916       .  S
C1077      C1078   1.408       .  A
C1078     Br1079   1.928       .  S
C1083      C1084   1.432       .  A
C1083      C1088   1.414       .  A
C1083     Br1090   1.923       .  S
C1084      C1085   1.406       .  A
C1085      C1086   1.413       .  A
C1085     Br1092   1.932       .  S
C1086      C1087   1.424       .  A
C1086     Br1091   1.923       .  S
C1087      C1088   1.409       .  A
C1088     Br1089   1.937       .  S
C1093      C1094   1.409       .  A
C1093      C1098   1.402       .  A
C1093     Br1100   1.933       .  S
C1094      C1095   1.412       .  A
C1095      C1096   1.412       .  A
C1095     Br1102   1.927       .  S
C1096      C1097   1.409       .  A
C1096     Br1101   1.927       .  S
C1097      C1098   1.409       .  A
C1098     Br1099   1.933       .  S
C1103      C1104   1.401       .  A
C1103      C1108   1.387       .  A
C1103     Br1110   1.926       .  S
C1104      C1105   1.423       .  A
C1105      C1106   1.430       .  A
C1105     Br1112   1.924       .  S
C1106      C1107   1.420       .  A
C1106     Br1111   1.925       .  S
C1107      C1108   1.402       .  A
C1108     Br1109   1.903       .  S
C1113      C1114   1.424       .  A
C1113      C1118   1.432       .  A
C1113     Br1120   1.928       .  S
C1114      C1115   1.400       .  A
C1115      C1116   1.419       .  A
C1115     Br1122   1.942       .  S
C1116      C1117   1.440       .  A
C1116     Br1121   1.918       .  S
C1117      C1118   1.420       .  A
C1118     Br1119   1.926       .  S
C1123      C1124   1.404       .  A
C1123      C1128   1.402       .  A
C1123     Br1130   1.913       .  S
C1124      C1125   1.386       .  A
C1125      C1126   1.395       .  A
C1125     Br1132   1.917       .  S
C1126      C1127   1.410       .  A
C1126     Br1131   1.916       .  S
C1127      C1128   1.401       .  A
C1128     Br1129   1.922       .  S
C1133      C1134   1.422       .  A
C1133      C1138   1.448       .  A
C1133     Br1140   1.921       .  S
C1134      C1135   1.411       .  A
C1135      C1136   1.396       .  A
C1135     Br1142   1.918       .  S
C1136      C1137   1.409       .  A
C1136     Br1141   1.929       .  S
C1137      C1138   1.434       .  A
C1138     Br1139   1.922       .  S
C1143      C1144   1.423       .  A
C1143      C1148   1.419       .  A
C1143     Br1150   1.931       .  S
C1144      C1145   1.417       .  A
C1145      C1146   1.409       .  A
C1145     Br1152   1.934       .  S
C1146      C1147   1.412       .  A
C1146     Br1151   1.933       .  S
C1147      C1148   1.407       .  A
C1148     Br1149   1.927       .  S
