geometry optimzed in LAMMPS
_audit_creation_date              2020-11-30 
_audit_creation_method            'lammps2cif' 
_symmetry_space_group_name_H-M    'P1' 
_symmetry_Int_Tables_number       1 
_symmetry_cell_setting            triclinic 
loop_ 
_symmetry_equiv_pos_as_xyz 
  x,y,z 
_cell_length_a                    36.06595980976442 
_cell_length_b                    36.06591821048011 
_cell_length_c                    40.395883189161594 
_cell_angle_alpha                 88.65801496333633 
_cell_angle_beta                  91.32979838388229 
_cell_angle_gamma                 125.01221768192596 
loop_ 
_atom_site_label 
_atom_site_type_symbol 
_atom_site_fract_x 
_atom_site_fract_y 
_atom_site_fract_z 
_atom_site_charge 
O1          O  0.87877436  0.23081323  0.07778501    -0.82180
O2          O  0.88408969  0.37100949  0.14884513    -0.66860
O3          O  0.90018430  0.28023529  0.13426217    -1.13470
C4          C  0.75178142  0.18446257  0.16512991     1.04710
O5          O  0.85966935  0.34320147  0.19950197    -0.80070
O6          O  0.86712981  0.26470312  0.21103388    -0.67650
Ni7        Ni  0.93112159  0.28264364  0.09662467     1.34870
C8          C  0.86882159  0.23165508  0.20126671     0.83450
O9          O  0.95771999  0.37280552  0.13642391    -0.80610
O10         O  0.98311265  0.33337920  0.11608847    -0.90890
C11         C  0.86974374  0.37298077  0.17622119     0.83020
O12         O  0.92298571  0.32022835  0.06701917    -0.69090
O13         O  0.77172549  0.21052825  0.19047225    -0.88380
C14         C  0.89875881  0.33532947  0.06857470     0.83850
C15         C  0.98853423  0.36646858  0.13168290     1.05420
H16         H  0.81200337  0.28301613  0.13577695     0.37220
O17         O  0.83291203  0.28072866  0.14954418    -1.11040
O18         O  0.84589641  0.21065232  0.17628872    -0.67690
Ni19       Ni  0.83782430  0.23451893  0.13638892     1.26350
O20         O  0.88057776  0.33430998  0.09549607    -0.67920
O21         O  0.77339593  0.19048047  0.13873591    -0.80210
C22         C  0.85109291  0.19476231  0.09389690     0.83240
O23         O  0.84815740  0.19341211  0.12412171    -0.67380
Ni24       Ni  0.82015960  0.27587315  0.19505011     1.27450
Ni25       Ni  0.89433739  0.32745060  0.14121506     1.26060
H26         H  0.91620284  0.27861919  0.15303835     0.37780
O27         O  0.88903102  0.21948218  0.34399028    -0.82180
O28         O  0.02921995  0.22560093  0.27231396    -0.66860
O29         O  0.93823345  0.24125684  0.28733710    -1.13470
C30         C  0.84264352  0.09292046  0.25631331     1.04710
O31         O  0.00122227  0.20103248  0.22172594    -0.80070
O32         O  0.92288431  0.20857306  0.21052877    -0.67650
Ni33       Ni  0.94062176  0.27203628  0.32503622     1.34870
C34         C  0.88991569  0.21034112  0.22036153     0.83450
O35         O  0.03071855  0.29906064  0.28490984    -0.80610
O36         O  0.99111178  0.32416868  0.30540747    -0.90890
C37         C  0.03111157  0.21123039  0.24492111     0.83020
O38         O  0.97855992  0.26419178  0.35442945    -0.69090
O39         O  0.86861092  0.11301166  0.23093680    -0.88380
C40         C  0.99372252  0.24003323  0.35278165     0.83850
C41         C  0.02415370  0.32972735  0.28962111     1.05420
H42         H  0.94130019  0.15328830  0.28554791     0.37220
O43         O  0.93890584  0.17416901  0.27183000    -1.11040
O44         O  0.86879049  0.18723331  0.24527769    -0.67690
Ni45       Ni  0.89261852  0.17890346  0.28513738     1.26350
O46         O  0.99263267  0.22186944  0.32583069    -0.67920
O47         O  0.84865242  0.11445787  0.28273726    -0.80210
C48         C  0.85295101  0.19173584  0.32793474     0.83240
O49         O  0.85147343  0.18902598  0.29768420    -0.67380
Ni50       Ni  0.93394801  0.16148508  0.22630880     1.27450
Ni51       Ni  0.98553337  0.23562830  0.28015722     1.26060
H52         H  0.93653169  0.25732753  0.26863789     0.37780
O53         O  0.89622709  0.39206008  0.03725430    -0.82180
O54         O  0.99086617  0.47863251  0.40033440    -0.66860
O55         O  0.89554396  0.39924675  0.46432602    -1.13470
C56         C  0.95942850  0.32193105  0.45612671     1.04710
O57         O  0.97068014  0.41999880  0.36963618    -0.80070
O58         O  0.89121346  0.33068145  0.39517883    -0.67650
Ni59       Ni  0.88325791  0.42214842  0.50211232     1.34870
C60         C  0.86590836  0.30483380  0.41927514     0.83450
O61         O  0.91699348  0.47673919  0.42812921    -0.80610
O62         O  0.86939643  0.45446047  0.47165254    -0.90890
C63         C  0.00066386  0.46163218  0.37710369     0.83020
O64         O  0.94270015  0.47473396  0.00861972    -0.69090
O65         O  0.95207638  0.32356086  0.42547532    -0.88380
C66         C  0.97969953  0.49099023  0.49382090     0.83850
C67         C  0.88623616  0.47606228  0.44441648     1.05420
H68         H  0.99180139  0.41997135  0.44497133     0.37220
O69         O  0.96073197  0.40245098  0.43716746    -1.11040
O70         O  0.87638897  0.31679663  0.44913204    -0.67690
Ni71       Ni  0.92305005  0.36838591  0.47313388     1.26350
O72         O  0.98294130  0.47851183  0.46555025    -0.67920
O73         O  0.95271783  0.34087075  0.47885548    -0.80210
C74         C  0.89255479  0.35471256  0.03748909     0.83240
O75         O  0.88757268  0.33521723  0.01063843    -0.67380
Ni76       Ni  0.95767689  0.37040108  0.39902367     1.27450
Ni77       Ni  0.94068851  0.44030453  0.43200674     1.26060
H78         H  0.86717299  0.37956471  0.45264125     0.37780
O79         O  0.00826821  0.46707465  0.24188044    -0.82180
O80         O  0.16462042  0.46799372  0.31658563    -0.66860
O81         O  0.05947700  0.45918253  0.28911309    -1.13470
C82         C  0.13082716  0.60384511  0.32407215     1.04710
O83         O  0.16128738  0.49284234  0.36579642    -0.80070
O84         O  0.08133646  0.49048920  0.36993887    -0.67650
Ni85       Ni  0.03198289  0.43142417  0.24794769     1.34870
C86         C  0.04699794  0.48931249  0.35903527     0.83450
O87         O  0.08416725  0.40064907  0.30028354    -0.80610
O88         O  0.04945707  0.38967782  0.25195494    -0.90890
C89         C  0.17401301  0.47359664  0.34711963     0.83020
O90         O  0.08561348  0.47509585  0.22419388    -0.69090
O91         O  0.13408482  0.58383057  0.34982892    -0.88380
C92         C  0.11989764  0.47368100  0.22621222     0.83850
C93         C  0.05636995  0.37504859  0.27870752     1.05420
H94         H  0.16559583  0.54356323  0.29777622     0.37220
O95         O  0.13800404  0.52348151  0.30991371    -1.11040
O96         O  0.05150464  0.51053162  0.33204612    -0.67690
Ni97       Ni  0.08975943  0.52339074  0.29263029     1.26350
O98         O  0.13443707  0.46989314  0.25492634    -0.67920
O99         O  0.12214294  0.58662364  0.29593545    -0.80210
C100        C  0.01480906  0.50195411  0.25548089     0.83240
O101        O  0.04541643  0.52622147  0.27528814    -0.67380
Ni102      Ni  0.14490590  0.53596245  0.35632817     1.27450
Ni103      Ni  0.11250482  0.46255083  0.30172039     1.26060
H104        H  0.03700134  0.44261349  0.30601477     0.37780
O105        O  0.05058546  0.23758087  0.38394646    -0.82180
O106        O  0.13763068  0.33284603  0.02066035    -0.66860
O107        O  0.05813991  0.23725343  0.45688473    -1.13470
C108        C  0.98063842  0.30095188  0.46515931     1.04710
O109        O  0.07900586  0.31237835  0.05147142    -0.80070
O110        O  0.98963136  0.23297263  0.02612197    -0.67650
Ni111      Ni  0.08090435  0.22487991  0.41905296     1.34870
C112        C  0.96374986  0.20763470  0.50206436     0.83450
O113        O  0.13592581  0.25905579  0.49287545    -0.80610
O114        O  0.11347998  0.21131730  0.44943975    -0.90890
C115        C  0.12057612  0.34251219  0.04394285     0.83020
O116        O  0.13331915  0.28434470  0.41234795    -0.69090
O117        O  0.98248797  0.29383372  0.49582988    -0.88380
C118        C  0.14954181  0.32138213  0.42706354     0.83850
C119        C  0.13527426  0.22832625  0.47657272     1.05420
H120        H  0.07873949  0.33348987  0.47613751     0.37220
O121        O  0.06130185  0.30243871  0.48399043    -1.11040
O122        O  0.97568658  0.21803337  0.47219917    -0.67690
Ni123      Ni  0.02717041  0.26465558  0.44810521     1.26350
O124        O  0.13724093  0.32470273  0.45538933    -0.67920
O125        O  0.99953938  0.29422056  0.44240665    -0.80210
C126        C  0.01324728  0.23390800  0.38380666     0.83240
O127        O  0.99388617  0.22902693  0.41070615    -0.67380
Ni128      Ni  0.02936467  0.29942074  0.02219922     1.27450
Ni129      Ni  0.09929259  0.28254909  0.48908202     1.26060
H130        H  0.03853525  0.20891809  0.46863986     0.37780
O131        O  0.12477406  0.34957492  0.17852129    -0.82180
O132        O  0.12681039  0.50684947  0.10418422    -0.66860
O133        O  0.11772459  0.40160035  0.13172947    -1.13470
C134        C  0.26233603  0.47257806  0.09676832     1.04710
O135        O  0.15135546  0.50310694  0.05494318    -0.80070
O136        O  0.14914710  0.42312372  0.05095101    -0.67650
Ni137      Ni  0.08980467  0.37407248  0.17284498     1.34870
C138        C  0.14806469  0.38886839  0.06195954     0.83450
O139        O  0.05931433  0.42649865  0.12063492    -0.80610
O140        O  0.04871761  0.39235393  0.16912915    -0.90890
C141        C  0.13221559  0.51599353  0.07360256     0.83020
O142        O  0.13401763  0.42760899  0.19643948    -0.69090
O143        O  0.24237351  0.47587504  0.07099301    -0.88380
C144        C  0.13244867  0.46181712  0.19461155     0.83850
C145        C  0.03384897  0.39895647  0.14239330     1.05420
H146        H  0.20224067  0.50768316  0.12289287     0.37220
O147        O  0.18211361  0.48003304  0.11083796    -1.11040
O148        O  0.16916637  0.39344637  0.08902751    -0.67690
Ni149      Ni  0.18199413  0.43187990  0.12832049     1.26350
O150        O  0.12872749  0.47656628  0.16595174    -0.67920
O151        O  0.24522827  0.46421199  0.12494413    -0.80210
C152        C  0.15998733  0.35646372  0.16524667     0.83240
O153        O  0.18488007  0.38771016  0.14602906    -0.67380
Ni154      Ni  0.19453570  0.48675167  0.06443286     1.27450
Ni155      Ni  0.12122582  0.45468447  0.11910497     1.26060
H156        H  0.10119647  0.37916576  0.11480345     0.37780
O157        O  0.14118072  0.67435120  0.30488923    -0.82180
O158        O  0.15241320  0.82403440  0.38025608    -0.66860
O159        O  0.16807711  0.73697308  0.35482702    -1.13470
C160        C  0.01254051  0.65076351  0.37291672     1.04710
O161        O  0.12214040  0.78672705  0.42666324    -0.80070
O162        O  0.07807754  0.69726574  0.43743630    -0.67650
Ni163      Ni  0.18071782  0.74169393  0.30931633     1.34870
C164        C  0.10241107  0.68228628  0.43586211     0.83450
O165        O  0.22737725  0.82724540  0.36555098    -0.80610
O166        O  0.22912632  0.80704077  0.31387552    -0.90890
C167        C  0.14991949  0.82271725  0.41050934     0.83020
O168        O  0.13371569  0.75277937  0.29330780    -0.69090
O169        O  0.01779911  0.68384459  0.38843396    -0.88380
C170        C  0.13189026  0.78574956  0.30305006     0.83850
C171        C  0.24904234  0.83313941  0.33920881     1.05420
H172        H  0.08458652  0.73872337  0.35140174     0.37220
O173        O  0.10067897  0.73721572  0.37017564    -1.11040
O174        O  0.12071228  0.68347999  0.40895811    -0.67690
Ni175      Ni  0.10676179  0.69013952  0.36326678     1.26350
O176        O  0.15471847  0.80678612  0.32805141    -0.67920
O177        O  0.04348751  0.64461884  0.36821450    -0.80210
C178        C  0.13119111  0.64458418  0.32816100     0.83240
O179        O  0.11719754  0.64671880  0.35564463    -0.67380
Ni180      Ni  0.06976585  0.73475635  0.40785925     1.27450
Ni181      Ni  0.16297645  0.78307987  0.36795789     1.26060
H182        H  0.18908048  0.73481808  0.36858030     0.37780
O183        O  0.99951426  0.81625653  0.28206854    -0.82180
O184        O  0.14936354  0.82794364  0.20659997    -0.66860
O185        O  0.06204748  0.84315933  0.23213222    -1.13470
C186        C  0.97652241  0.68761922  0.21429969     1.04710
O187        O  0.11197785  0.79766752  0.16022119    -0.80070
O188        O  0.02245035  0.75308700  0.14959784    -0.67650
Ni189      Ni  0.06680515  0.85583643  0.27762922     1.34870
C190        C  0.00737559  0.77733344  0.15118443     0.83450
O191        O  0.15231523  0.90268997  0.22136867    -0.80610
O192        O  0.13214697  0.90428783  0.27307831    -0.90890
C193        C  0.14798722  0.82544510  0.17634204     0.83020
O194        O  0.07783005  0.80878597  0.29357671    -0.69090
O195        O  0.00961295  0.69305730  0.19866335    -0.87660
C196        C  0.11081390  0.80698449  0.28384411     0.83850
C197        C  0.15821718  0.92428957  0.24773678     1.05420
H198        H  0.06418254  0.75986647  0.23552261     0.37220
O199        O  0.06259040  0.77594752  0.21677920    -1.11040
O200        O  0.00854840  0.79561157  0.17808623    -0.67690
Ni201      Ni  0.01536763  0.78175487  0.22376329     1.26350
O202        O  0.13197992  0.82999184  0.25891508    -0.67920
O203        O  0.97008006  0.71838433  0.21892126    -0.80210
C204        C  0.96972309  0.80614888  0.25881061     0.83240
O205        O  0.97175788  0.79193223  0.23140113    -0.67380
Ni206      Ni  0.06025127  0.74514038  0.17910109     1.27450
Ni207      Ni  0.10828707  0.83826874  0.21898232     1.26060
H208        H  0.05977404  0.86408280  0.21836883     0.37780
O209        O  0.84939607  0.51409664  0.44910841    -0.82180
O210        O  0.81700781  0.63013170  0.35798002    -0.66860
O211        O  0.81896750  0.53738451  0.39314049    -1.13470
C212        C  0.96732581  0.61808706  0.36209003     1.04710
O213        O  0.87769668  0.66874158  0.32607738    -0.80070
O214        O  0.86763303  0.59037018  0.30779507    -0.67650
Ni215      Ni  0.80629803  0.53053106  0.43948463     1.34870
C216        C  0.86872239  0.55585663  0.30949871     0.83450
O217        O  0.75619660  0.55360035  0.37875320    -0.80610
O218        O  0.75851901  0.54143696  0.43269635    -0.90890
C219        C  0.84228414  0.66169101  0.33910872     0.83020
O220        O  0.85163754  0.59412137  0.45315195    -0.69090
O221        O  0.95250070  0.62454946  0.33528735    -0.88380
C222        C  0.85289418  0.62846724  0.44212043     0.83850
C223        C  0.73878503  0.54492149  0.40684514     1.05420
H224        H  0.90019114  0.63808645  0.38963355     0.37220
O225        O  0.88374837  0.61581773  0.37259176    -1.11040
O226        O  0.87232453  0.54086821  0.33810254    -0.67690
Ni227      Ni  0.87982964  0.56247291  0.38506079     1.26350
O228        O  0.83200407  0.62401287  0.41497983    -0.67920
O229        O  0.94175713  0.59037622  0.38373316    -0.80210
C230        C  0.86839797  0.50101273  0.43048899     0.83240
O231        O  0.87378398  0.51005150  0.39988609    -0.67380
Ni232      Ni  0.91207471  0.64358737  0.33163182     1.27450
Ni233      Ni  0.81947162  0.58574287  0.37567705     1.26060
H234        H  0.79881296  0.50980552  0.38101684     0.37780
O235        O  0.92197885  0.70492525  0.45260130    -0.82180
O236        O  0.00718886  0.78840685  0.09327047    -0.66860
O237        O  0.93966032  0.71490232  0.02006792    -1.13470
C238        C  0.86587491  0.78922410  0.02748027     1.04710
O239        O  0.95043011  0.77966514  0.12006325    -0.80070
O240        O  0.86763576  0.73300294  0.09168377    -0.67650
Ni241      Ni  0.97154952  0.71775434  0.48187432     1.34870
C242        C  0.85133082  0.69598982  0.07690580     0.83450
O243        O  0.00139967  0.72312160  0.06166704    -0.80610
O244        O  0.01834837  0.72323931  0.00826041    -0.90890
C245        C  0.98781895  0.78343544  0.12017770     0.83020
O246        O  0.01148394  0.78417611  0.47786295    -0.69090
O247        O  0.88759025  0.80612901  0.05465727    -0.88380
C248        C  0.03735596  0.80952994  0.00191386     0.83850
C249        C  0.02024888  0.71627691  0.03895162     1.05420
H250        H  0.96252177  0.80849623  0.03540444     0.37220
O251        O  0.94290049  0.78015061  0.04714395    -1.11040
O252        O  0.86369164  0.69271140  0.04859623    -0.67690
Ni253      Ni  0.90173783  0.73487563  0.01494763     1.26350
O254        O  0.02532967  0.79925318  0.03177405    -0.67920
O255        O  0.86520886  0.75849695  0.01114986    -0.80210
C256        C  0.88040755  0.67482438  0.46013615     0.83240
O257        O  0.86336310  0.68457178  0.48337360    -0.67380
Ni258      Ni  0.92012299  0.79245938  0.08500947     1.27450
Ni259      Ni  0.97383893  0.75272487  0.05591876     1.26060
H260        H  0.92218809  0.68386807  0.02795813     0.37780
O261        O  0.02990697  0.59710653  0.13454102    -0.82180
O262        O  0.11357363  0.68220379  0.49377849    -0.66860
O263        O  0.04004155  0.61475649  0.06703676    -1.13470
C264        C  0.11437097  0.54097312  0.05974670     1.04710
O265        O  0.10473701  0.62536899  0.46704623    -0.80070
O266        O  0.05806391  0.54260192  0.99551612    -0.67650
Ni267      Ni  0.04291381  0.64671255  0.10518874     1.34870
C268        C  0.02105991  0.52631048  0.01031617     0.83450
O269        O  0.04828469  0.67645305  0.02536751    -0.80610
O270        O  0.04854484  0.69355597  0.07874378    -0.90890
C271        C  0.10856092  0.66278696  0.46688915     0.83020
O272        O  0.10934710  0.68655613  0.10920308    -0.69090
O273        O  0.13122867  0.56260972  0.03252767    -0.88380
C274        C  0.13472880  0.71241669  0.08514420     0.83850
C275        C  0.04142105  0.69530310  0.04806528     1.05420
H276        H  0.13363050  0.63757037  0.05169212     0.37220
O277        O  0.10527559  0.61794405  0.03997401    -1.11040
O278        O  0.01780895  0.53871847  0.03861242    -0.67690
Ni279      Ni  0.06000668  0.57683391  0.07221261     1.26350
O280        O  0.12443053  0.70040317  0.05528372    -0.67920
O281        O  0.08364309  0.54032364  0.07606846    -0.80210
C282        C  0.99988756  0.55550210  0.12703325     0.83240
O283        O  0.00971215  0.53849062  0.10382168    -0.67380
Ni284      Ni  0.11753846  0.59509563  0.00213214     1.27450
Ni285      Ni  0.07788303  0.64889965  0.03116059     1.26060
H286        H  0.00900779  0.59728064  0.05915522     0.37780
O287        O  0.83916884  0.52436905  0.13819193    -0.82180
O288        O  0.95506962  0.49124757  0.22891905    -0.66860
O289        O  0.86250960  0.49391905  0.19414331    -1.13470
C290        C  0.94410389  0.64235060  0.22519010     1.04710
O291        O  0.99275631  0.55090221  0.26182333    -0.80070
O292        O  0.91513569  0.54230818  0.27963305    -0.67650
Ni293      Ni  0.85561765  0.48129843  0.14775927     1.34870
C294        C  0.88088732  0.54379652  0.27779007     0.83450
O295        O  0.87834279  0.43082122  0.20832076    -0.80610
O296        O  0.86650906  0.43347904  0.15439211    -0.90890
C297        C  0.98600109  0.51582085  0.24842288     0.83020
O298        O  0.91920203  0.52673565  0.13412408    -0.69090
O299        O  0.95080071  0.62762923  0.25197682    -0.88380
C300        C  0.95351638  0.52788125  0.14506202     0.83850
C301        C  0.86980749  0.41356765  0.18020519     1.05420
H302        H  0.96348139  0.57480403  0.19786130     0.37220
O303        O  0.94106591  0.55831131  0.21481147    -1.11040
O304        O  0.86620301  0.54760344  0.24913110    -0.67690
Ni305      Ni  0.88797238  0.55486410  0.20225007     1.26350
O306        O  0.94898006  0.50673004  0.17209250    -0.67920
O307        O  0.91628944  0.61679053  0.20360487    -0.80210
C308        C  0.82639574  0.54363331  0.15681338     0.83240
O309        O  0.83579267  0.54932431  0.18735753    -0.67380
Ni310      Ni  0.96867674  0.58622649  0.25589928     1.27450
Ni311      Ni  0.91075224  0.49406692  0.21148500     1.26060
H312        H  0.83491763  0.47385868  0.20628609     0.37780
O313        O  0.71720249  0.57107292  0.05001491    -0.82180
O314        O  0.80366865  0.66583433  0.18693078    -0.66860
O315        O  0.72435803  0.57049623  0.12296232    -1.13470
C316        C  0.64693548  0.63427490  0.13113001     1.04710
O317        O  0.74502325  0.64566268  0.21763446    -0.80070
O318        O  0.65578757  0.56608306  0.19208455    -0.67650
Ni319      Ni  0.74729839  0.55818624  0.08521307     1.34870
C320        C  0.62993993  0.54077491  0.16799778     0.83450
O321        O  0.80189466  0.59205215  0.15919008    -0.80610
O322        O  0.77965443  0.54442191  0.11571430    -0.90890
C323        C  0.78666834  0.67562459  0.21016551     0.83020
O324        O  0.79983084  0.61764228  0.07867318    -0.69090
O325        O  0.64851860  0.62683759  0.16177060    -0.88380
C326        C  0.81605172  0.65464707  0.09344210     0.83850
C327        C  0.80128935  0.56133008  0.14292379     1.05420
H328        H  0.74500128  0.66672875  0.14228801     0.37220
O329        O  0.72749342  0.63565493  0.15009181    -1.11040
O330        O  0.64187779  0.55128575  0.13813104    -0.67690
Ni331      Ni  0.69347242  0.59797964  0.11412043     1.26350
O332        O  0.80357433  0.65790540  0.12171070    -0.67920
O333        O  0.66591612  0.62762397  0.10838993    -0.80210
C334        C  0.67988074  0.56745374  0.04974825     0.83240
O335        O  0.66036889  0.56252290  0.07659136    -0.67380
Ni336      Ni  0.69540149  0.63254987  0.18822802     1.27450
Ni337      Ni  0.76538378  0.61565786  0.15527558     1.26060
H338        H  0.70467758  0.54212950  0.13466142     0.37780
O339        O  0.79397059  0.68432428  0.34612093    -0.82180
O340        O  0.79257958  0.83889515  0.27079825    -0.66860
O341        O  0.78469035  0.73425039  0.29842803    -1.13470
C342        C  0.92905365  0.80585716  0.26292810     1.04710
O343        O  0.81784997  0.83613989  0.22160094    -0.80070
O344        O  0.81542532  0.75623406  0.21740661    -0.67650
Ni345      Ni  0.75739147  0.70694289  0.33976127     1.34870
C346        C  0.81437886  0.72194236  0.22823320     0.83450
O347        O  0.72574075  0.75834459  0.28731100    -0.80610
O348        O  0.71470913  0.72326629  0.33556553    -0.90890
C349        C  0.79837817  0.84856409  0.24030983     0.83020
O350        O  0.80053758  0.76085538  0.36338005    -0.69090
O351        O  0.90887373  0.80896078  0.23722624    -0.88380
C352        C  0.79873435  0.79487414  0.36119341     0.83850
C353        C  0.70017163  0.73049310  0.30888106     1.05420
H354        H  0.86861927  0.84047504  0.28953793     0.37220
O355        O  0.84860322  0.81286719  0.27741004    -1.11040
O356        O  0.83581956  0.72651744  0.25511459    -0.67690
Ni357      Ni  0.84884766  0.76474780  0.29458648     1.26350
O358        O  0.79481979  0.80914528  0.33241560    -0.67920
O359        O  0.91202886  0.79736106  0.29110952    -0.80210
C360        C  0.82845596  0.69052492  0.33209234     0.83240
O361        O  0.85199813  0.72047941  0.31166757    -0.67380
Ni362      Ni  0.86097731  0.81978431  0.23094282     1.27450
Ni363      Ni  0.78761902  0.78702798  0.28572515     1.26060
H364        H  0.76805224  0.71162921  0.28163567     0.37780
O365        O  0.67473662  0.80011346  0.40872774    -0.82180
O366        O  0.83159561  0.80158366  0.48312303    -0.66860
O367        O  0.72653100  0.79281750  0.45555774    -1.13470
C368        C  0.79768434  0.93734456  0.49070206     1.04710
O369        O  0.82799649  0.82617537  0.03237811    -0.80070
O370        O  0.74804469  0.82401413  0.03636924    -0.67650
Ni371      Ni  0.69903606  0.76497827  0.41442143     1.34870
C372        C  0.71382441  0.82300118  0.02537887     0.83450
O373        O  0.75120577  0.73424715  0.46664248    -0.80610
O374        O  0.71709261  0.72370105  0.41813793    -0.90890
C375        C  0.84082740  0.80702071  0.01368586     0.83020
O376        O  0.75262563  0.80909150  0.39082551    -0.69090
O377        O  0.80088219  0.91727503  0.01644786    -0.88380
C378        C  0.78679598  0.80746955  0.39272182     0.83850
C379        C  0.72372915  0.70881435  0.44485299     1.05420
H380        H  0.83265320  0.87715742  0.46447978     0.37220
O381        O  0.80497900  0.85705729  0.47652465    -1.11040
O382        O  0.71844556  0.84419350  0.99833851    -0.67690
Ni383      Ni  0.75691790  0.85709451  0.45903529     1.26350
O384        O  0.80145910  0.80371513  0.42140364    -0.67920
O385        O  0.78934469  0.92032433  0.46250041    -0.80210
C386        C  0.68166449  0.83533489  0.42200668     0.83240
O387        O  0.71286244  0.86014767  0.44127826    -0.67380
Ni388      Ni  0.81169086  0.86939541  0.02293802     1.27450
Ni389      Ni  0.77950966  0.79616245  0.46821782     1.26060
H390        H  0.70405145  0.77627965  0.47246103     0.37780
O391        O  0.56271492  0.72559259  0.20351432    -0.82180
O392        O  0.65789918  0.81257153  0.06675585    -0.66860
O393        O  0.56235076  0.73307690  0.13057002    -1.13470
C394        C  0.62596007  0.65550841  0.12214442     1.04710
O395        O  0.63730579  0.75396098  0.03590036    -0.80070
O396        O  0.55789646  0.66456380  0.06132269    -0.67650
Ni397      Ni  0.54995386  0.75583857  0.16838111     1.34870
C398        C  0.53258706  0.63867100  0.08540005     0.83450
O399        O  0.58419096  0.81087979  0.09457806    -0.80610
O400        O  0.53632782  0.78832562  0.13795295    -0.90890
C401        C  0.66748023  0.79552402  0.04341872     0.83020
O402        O  0.60939434  0.80830851  0.17503814    -0.69090
O403        O  0.61881143  0.65738627  0.09148346    -0.88380
C404        C  0.64645422  0.82447913  0.16036015     0.83850
C405        C  0.55338890  0.81014942  0.11083058     1.05420
H406        H  0.65853782  0.75361600  0.11120914     0.37220
O407        O  0.62747465  0.73619848  0.10339273    -1.11040
O408        O  0.54303685  0.65059275  0.11526364    -0.67690
Ni409      Ni  0.58973226  0.70208121  0.13931598     1.26350
O410        O  0.64980260  0.81213632  0.13205751    -0.67920
O411        O  0.61925965  0.67439481  0.14493306    -0.80210
C412        C  0.55906961  0.68826619  0.20368918     0.83240
O413        O  0.55419312  0.66887234  0.17680064    -0.67380
Ni414      Ni  0.62436145  0.70428031  0.06514946     1.27450
Ni415      Ni  0.60763513  0.77422910  0.09835582     1.26060
H416        H  0.53401748  0.71348400  0.11881887     0.37780
O417        O  0.54410825  0.56392301  0.24344286    -0.82180
O418        O  0.55105979  0.70435574  0.31536174    -0.66860
O419        O  0.56614419  0.61302053  0.30013488    -1.13470
C420        C  0.41789897  0.51768540  0.33127453     1.04710
O421        O  0.52615308  0.67619825  0.36588203    -0.80070
O422        O  0.53364106  0.59778078  0.37695017    -0.67650
Ni423      Ni  0.59678569  0.61529010  0.26240443     1.34870
C424        C  0.53527727  0.56474497  0.36708273     0.83450
O425        O  0.62432460  0.70542751  0.30270535    -0.80610
O426        O  0.64902793  0.66552869  0.28207314    -0.90890
C427        C  0.53646279  0.70613555  0.34269474     0.83020
O428        O  0.58922306  0.65346190  0.23306777    -0.69090
O429        O  0.43805934  0.54360558  0.35665317    -0.88380
C430        C  0.56519387  0.66876282  0.23474487     0.83850
C431        C  0.65479161  0.69857173  0.29798099     1.05420
H432        H  0.47846795  0.61654184  0.30204885     0.37220
O433        O  0.49927611  0.61400711  0.31573983    -1.11040
O434        O  0.51205899  0.54364672  0.34219615    -0.67690
Ni435      Ni  0.50376534  0.56759365  0.30235900     1.26350
O436        O  0.54715144  0.66779752  0.26173667    -0.67920
O437        O  0.43933103  0.52379768  0.30477939    -0.80210
C438        C  0.51642555  0.52780302  0.25948438     0.83240
O439        O  0.51357506  0.52628012  0.28972873    -0.67380
Ni440      Ni  0.48658022  0.60893754  0.36127536     1.27450
Ni441      Ni  0.56081297  0.66048189  0.30741607     1.26060
H442        H  0.58218230  0.61119553  0.31879663     0.37780
O443        O  0.55594014  0.55339034  0.00958879    -0.82180
O444        O  0.69623754  0.55924026  0.43819076    -0.66860
O445        O  0.60524053  0.57493045  0.45303377    -1.13470
C446        C  0.50963801  0.42652807  0.42216605     1.04710
O447        O  0.66832138  0.53465051  0.38758196    -0.80070
O448        O  0.58970028  0.54199068  0.37624926    -0.67650
Ni449      Ni  0.60762329  0.60580906  0.99068255     1.34870
C450        C  0.55662503  0.54360085  0.38608440     0.83450
O451        O  0.69779068  0.63271795  0.45071359    -0.80610
O452        O  0.65822045  0.65788296  0.47116400    -0.90890
C453        C  0.69818062  0.54485463  0.41082047     0.83020
O454        O  0.64535500  0.59782308  0.02021508    -0.69090
O455        O  0.53565208  0.44653346  0.39679486    -0.88380
C456        C  0.66053285  0.57366895  0.01863495     0.83850
C457        C  0.69133579  0.66343930  0.45551246     1.05420
H458        H  0.60834520  0.48695464  0.45139482     0.37220
O459        O  0.60594557  0.50781563  0.43765559    -1.11040
O460        O  0.53566277  0.52059303  0.41106278    -0.67690
Ni461      Ni  0.55964578  0.51253178  0.45092247     1.26350
O462        O  0.65959193  0.55557369  0.49168426    -0.67920
O463        O  0.51572520  0.44808904  0.44859359    -0.80210
C464        C  0.51985091  0.52568618  0.49354228     0.83240
O465        O  0.51841860  0.52261472  0.46332252    -0.67380
Ni466      Ni  0.60098991  0.49506522  0.39213999     1.27450
Ni467      Ni  0.65256482  0.56929006  0.44596140     1.26060
H468        H  0.60353008  0.59092702  0.43428262     0.37780
O469        O  0.47442046  0.34075250  0.13757866    -0.82180
O470        O  0.48640815  0.49061962  0.21329455    -0.66860
O471        O  0.50123178  0.40310135  0.18765665    -1.13470
C472        C  0.34562808  0.31775077  0.20553942     1.04710
O473        O  0.45567634  0.45312826  0.25958661    -0.80070
O474        O  0.41126360  0.36372391  0.27025190    -0.67650
Ni475      Ni  0.51397545  0.40808263  0.14213285     1.34870
C476        C  0.43539165  0.34851957  0.26865849     0.83450
O477        O  0.56093866  0.49331841  0.19858161    -0.80610
O478        O  0.56248716  0.47342263  0.14677564    -0.90890
C479        C  0.48334608  0.48921325  0.24351267     0.83020
O480        O  0.46702765  0.41935680  0.12626834    -0.69090
O481        O  0.35119330  0.35084273  0.22122327    -0.88380
C482        C  0.46542457  0.45243454  0.13610520     0.83850
C483        C  0.58249287  0.49942373  0.17214371     1.05420
H484        H  0.41811704  0.40551576  0.18430768     0.37220
O485        O  0.43411702  0.40380115  0.20305148    -1.11040
O486        O  0.45345232  0.34942339  0.24169544    -0.67690
Ni487      Ni  0.43975726  0.35647643  0.19597194     1.26350
O488        O  0.48845051  0.47339523  0.16106807    -0.67920
O489        O  0.37632628  0.31126390  0.20072792    -0.80210
C490        C  0.46422465  0.31088299  0.16081478     0.83240
O491        O  0.44981025  0.31279770  0.18818636    -0.67380
Ni492      Ni  0.40326019  0.40143695  0.24071348     1.27450
Ni493      Ni  0.49650543  0.44939501  0.20092190     1.26060
H494        H  0.52209434  0.40069957  0.20138837     0.37780
O495        O  0.33278727  0.48286403  0.11588746    -0.82180
O496        O  0.48279931  0.49550057  0.03978814    -0.66860
O497        O  0.39501354  0.50974933  0.06575525    -1.13470
C498        C  0.31043851  0.35420290  0.04804418     1.04710
O499        O  0.44516926  0.46486744  0.49352813    -0.80070
O500        O  0.35564411  0.41977889  0.48315019    -0.67650
Ni501      Ni  0.40005654  0.52246167  0.11127880     1.34870
C502        C  0.34034492  0.44381280  0.48480650     0.83450
O503        O  0.48521832  0.56973178  0.05476841    -0.80610
O504        O  0.46538854  0.57101992  0.10663564    -0.90890
C505        C  0.48127998  0.49259815  0.00954806     0.83020
O506        O  0.41123204  0.47541345  0.12697764    -0.69090
O507        O  0.34352052  0.35996996  0.03218605    -0.88380
C508        C  0.44428639  0.47379888  0.11711621     0.83850
C509        C  0.49131280  0.59118034  0.08124727     1.05420
H510        H  0.39785673  0.42685872  0.06888766     0.37220
O511        O  0.39603848  0.44288456  0.05021170    -1.11040
O512        O  0.34128879  0.46185872  0.01178310    -0.67690
Ni513      Ni  0.34855711  0.44820294  0.05746507     1.26350
O514        O  0.46540830  0.49705556  0.09224250    -0.67920
O515        O  0.30361005  0.38468782  0.05276868    -0.80210
C516        C  0.30285723  0.47253884  0.09269645     0.83240
O517        O  0.30466558  0.45794790  0.06537267    -0.67380
Ni518      Ni  0.39378601  0.41220835  0.01251235     1.27450
Ni519      Ni  0.44145081  0.50528370  0.05239132     1.26060
H520        H  0.39247175  0.53054478  0.05204990     0.37780
O521        O  0.18294497  0.18113421  0.28240817    -0.82180
O522        O  0.14896684  0.29637451  0.19151829    -0.66860
O523        O  0.15201563  0.20413532  0.22656413    -1.13470
C524        C  0.30026055  0.28543074  0.19485957     1.04710
O525        O  0.20870671  0.33419168  0.15866153    -0.80070
O526        O  0.20001703  0.25644634  0.14080318    -0.67650
Ni527      Ni  0.13968613  0.19738582  0.27299094     1.34870
C528        C  0.20164917  0.22228360  0.14273807     0.83450
O529        O  0.08876700  0.21980349  0.21259259    -0.80610
O530        O  0.09176520  0.20813937  0.26652370    -0.90890
C531        C  0.17362019  0.32741005  0.17208485     0.83020
O532        O  0.18504742  0.26102183  0.28645818    -0.69090
O533        O  0.28542839  0.29218281  0.16816216    -0.88380
C534        C  0.18607370  0.29525799  0.27548576     0.83850
C535        C  0.07170370  0.21135892  0.24078427     1.05420
H536        H  0.23279784  0.30508338  0.22247975     0.37220
O537        O  0.21624094  0.28259834  0.20558933    -1.11040
O538        O  0.20539230  0.20765147  0.17143588    -0.67690
Ni539      Ni  0.21290896  0.22961449  0.21823527     1.26350
O540        O  0.16488204  0.29065444  0.24845820    -0.67920
O541        O  0.27480692  0.25791935  0.21663378    -0.80210
C542        C  0.20211187  0.16832781  0.26370726     0.83240
O543        O  0.20751126  0.17753940  0.23314003    -0.67380
Ni544      Ni  0.24400351  0.31006446  0.16441362     1.27450
Ni545      Ni  0.15198654  0.25223629  0.20913393     1.26060
H546        H  0.13191031  0.17647856  0.21451083     0.37780
O547        O  0.25516499  0.37173185  0.28598413    -0.82180
O548        O  0.34024665  0.45479491  0.42686150    -0.66860
O549        O  0.27288116  0.38157861  0.35347112    -1.13470
C550        C  0.19910842  0.45587381  0.36091990     1.04710
O551        O  0.28355920  0.44634722  0.45358314    -0.80070
O552        O  0.20085634  0.39973382  0.42512071    -0.67650
Ni553      Ni  0.30480941  0.38464947  0.31524120     1.34870
C554        C  0.18464342  0.36269327  0.41041106     0.83450
O555        O  0.33461155  0.38967334  0.39502123    -0.80610
O556        O  0.35168523  0.39018982  0.34158058    -0.90890
C557        C  0.32085979  0.44994251  0.45375079     0.83020
O558        O  0.34452580  0.45110608  0.31138760    -0.69090
O559        O  0.22088894  0.47286365  0.38806037    -0.88380
C560        C  0.37042734  0.47640533  0.33545372     0.83850
C561        C  0.35352173  0.38299565  0.37223769     1.05420
H562        H  0.29573278  0.47509959  0.36890144     0.37220
O563        O  0.27610137  0.44675962  0.38064425    -1.11040
O564        O  0.19697206  0.35936735  0.38209803    -0.67690
Ni565      Ni  0.23494217  0.40152783  0.34841765     1.26350
O566        O  0.35852589  0.46594389  0.36532457    -0.67920
O567        O  0.19838402  0.42508925  0.34464336    -0.80210
C568        C  0.21359038  0.34161207  0.29351056     0.83240
O569        O  0.19656434  0.35127543  0.31681567    -0.67380
Ni570      Ni  0.25334807  0.45916662  0.41846453     1.27450
Ni571      Ni  0.30701127  0.41928483  0.38939161     1.26060
H572        H  0.25541732  0.35051214  0.36129083     0.37780
O573        O  0.17294414  0.19123610  0.47159688    -0.82180
O574        O  0.28843445  0.15691996  0.06182613    -0.66860
O575        O  0.19613855  0.16039026  0.02741155    -1.13470
C576        C  0.27844780  0.30880607  0.05889848     1.04710
O577        O  0.32490223  0.21525494  0.09598781    -0.80070
O578        O  0.24818853  0.20843346  0.11336463    -0.67650
Ni579      Ni  0.18926392  0.14805909  0.48094768     1.34870
C580        C  0.21416884  0.21024934  0.11121007     0.83450
O581        O  0.21160632  0.09691305  0.04113342    -0.80610
O582        O  0.20002482  0.10011565  0.48724789    -0.90890
C583        C  0.31858894  0.18065607  0.08207310     0.83020
O584        O  0.25285474  0.19356619  0.46743193    -0.69090
O585        O  0.28556727  0.29420024  0.08558910    -0.88380
C586        C  0.28712262  0.19457736  0.47827594     0.83850
C587        C  0.20311184  0.07990588  0.01294340     1.05420
H588        H  0.29734418  0.24091476  0.03161876     0.37220
O589        O  0.27473333  0.22429450  0.04842739    -1.11040
O590        O  0.19986343  0.21414669  0.08243835    -0.67690
Ni591      Ni  0.22196519  0.22137426  0.03572588     1.26350
O592        O  0.28251156  0.17314108  0.50517702    -0.67920
O593        O  0.25065618  0.28327051  0.03729614    -0.80210
C594        C  0.16046608  0.21066645  0.49030650     0.83240
O595        O  0.17009214  0.21641537  0.02080156    -0.67380
Ni596      Ni  0.30207627  0.25166598  0.08972295     1.27450
Ni597      Ni  0.24422301  0.16011137  0.04463015     1.26060
H598        H  0.16851078  0.14037097  0.03952629     0.37780
O599        O  0.36344887  0.26390682  0.46768552    -0.82180
O600        O  0.44653692  0.34866945  0.32661585    -0.66860
O601        O  0.37343040  0.28149040  0.40014536    -1.13470
C602        C  0.44787501  0.20784050  0.39289747     1.04710
O603        O  0.43798205  0.29184642  0.30002986    -0.80070
O604        O  0.39149847  0.20920719  0.32869127    -0.67650
Ni605      Ni  0.37652115  0.31353981  0.43829813     1.34870
C606        C  0.35448329  0.19298765  0.34345528     0.83450
O607        O  0.38143207  0.34307700  0.35846639    -0.80610
O608        O  0.38217807  0.36041296  0.41185698    -0.90890
C609        C  0.44160537  0.32916782  0.29976964     0.83020
O610        O  0.44299217  0.35320372  0.44212657    -0.69090
O611        O  0.46477335  0.22948923  0.36568788    -0.88380
C612        C  0.46829272  0.37906910  0.41803215     0.83850
C613        C  0.37475354  0.36201939  0.38121763     1.05420
H614        H  0.46696535  0.30435850  0.38466848     0.37220
O615        O  0.43860170  0.28467837  0.37297488    -1.11040
O616        O  0.35121238  0.20545249  0.37172472    -0.67690
Ni617      Ni  0.39344647  0.24361609  0.40529353     1.26350
O618        O  0.45778450  0.36713653  0.38816750    -0.67920
O619        O  0.41709898  0.20714915  0.40916475    -0.80210
C620        C  0.33346904  0.22227188  0.46021370     0.83240
O621        O  0.34326057  0.20528604  0.43696573    -0.67380
Ni622      Ni  0.45093244  0.26178692  0.33520611     1.27450
Ni623      Ni  0.41109742  0.31554406  0.36416401     1.26060
H624        H  0.34235603  0.26397867  0.39235240     0.37780
O625        O  0.51630298  0.84779489  0.11573532    -0.82180
O626        O  0.48262663  0.96378159  0.02576172    -0.66860
O627        O  0.48566705  0.87114240  0.05988440    -1.13470
C628        C  0.63414282  0.95338906  0.02862839     1.04710
O629        O  0.54069943  0.99992133  0.49135402    -0.80070
O630        O  0.53394321  0.92332980  0.47401847    -0.67650
Ni631      Ni  0.47318799  0.86414692  0.10633327     1.34870
C632        C  0.53560962  0.88922420  0.47615345     0.83450
O633        O  0.42239018  0.88683819  0.04609007    -0.80610
O634        O  0.42529152  0.87494699  0.09995838    -0.90890
C635        C  0.50620925  0.99374184  0.00535789     0.83020
O636        O  0.51870443  0.92767434  0.11997931    -0.69090
O637        O  0.61965253  0.96061749  0.00192191    -0.88380
C638        C  0.51983304  0.96201227  0.10915389     0.83850
C639        C  0.40521267  0.87814596  0.07422772     1.05420
H640        H  0.56635286  0.97233322  0.05584815     0.37220
O641        O  0.54973525  0.94977102  0.03901475    -1.11040
O642        O  0.53947924  0.87486714  0.00491245    -0.67690
Ni643      Ni  0.54664406  0.89687981  0.05164718     1.26350
O644        O  0.49848567  0.95750126  0.08224452    -0.67920
O645        O  0.60852161  0.92545480  0.05014028    -0.80210
C646        C  0.53573255  0.83530178  0.09704943     0.83240
O647        O  0.54151156  0.84491263  0.06654813    -0.67380
Ni648      Ni  0.57714247  0.97714669  0.99772011     1.27450
Ni649      Ni  0.48558506  0.91937260  0.04275234     1.26060
H650        H  0.46563789  0.84357413  0.04771775     0.37780
O651        O  0.58921719  0.03825812  0.11974169    -0.82180
O652        O  0.67395362  0.12160971  0.26069573    -0.66860
O653        O  0.60674122  0.04835171  0.18727837    -1.13470
C654        C  0.53305293  0.12279836  0.19443303     1.04710
O655        O  0.61706326  0.11286190  0.28731452    -0.80070
O656        O  0.53439306  0.06633059  0.25867951    -0.67650
Ni657      Ni  0.63881560  0.05136210  0.14915513     1.34870
C658        C  0.51812781  0.02934670  0.24386507     0.83450
O659        O  0.66832655  0.05643319  0.22899007    -0.80610
O660        O  0.68569278  0.05709220  0.17562554    -0.90890
C661        C  0.65443861  0.11658596  0.28755062     0.83020
O662        O  0.67847253  0.11780880  0.14521739    -0.69090
O663        O  0.55460772  0.13961356  0.22168442    -0.88380
C664        C  0.70432184  0.14314980  0.16928715     0.83850
C665        C  0.68727341  0.04970841  0.20627501     1.05420
H666        H  0.62958541  0.14192437  0.20269020     0.37220
O667        O  0.60990631  0.11354782  0.21437851    -1.11040
O668        O  0.53063294  0.02612881  0.21559941    -0.67690
Ni669      Ni  0.56888538  0.06839017  0.18206722     1.26350
O670        O  0.69236722  0.13271496  0.19915739    -0.67920
O671        O  0.53244244  0.09208127  0.17814436    -0.80210
C672        C  0.54757105  0.00833335  0.12721921     0.83240
O673        O  0.53058346  0.01819827  0.15041628    -0.67380
Ni674      Ni  0.58695168  0.12579374  0.25215837     1.27450
Ni675      Ni  0.64079601  0.08607997  0.22321777     1.26060
H676        H  0.58922127  0.01729160  0.19511231     0.37780
O677        O  0.80802781  0.00783714  0.47165594    -0.82180
O678        O  0.82043720  0.15770924  0.04772527    -0.66860
O679        O  0.83495903  0.07009575  0.02178254    -1.13470
C680        C  0.67947759  0.98535247  0.03959663     1.04710
O681        O  0.79006342  0.12014209  0.09405333    -0.80070
O682        O  0.74504411  0.03060738  0.10447636    -0.67650
Ni683      Ni  0.84762083  0.07509900  0.47624739     1.34870
C684        C  0.76912238  0.01536107  0.10280486     0.83450
O685        O  0.89479410  0.16032433  0.03269608    -0.80610
O686        O  0.89613265  0.14043248  0.48086013    -0.90890
C687        C  0.81776580  0.15622619  0.07797882     0.83020
O688        O  0.80054964  0.08621116  0.46053526    -0.69090
O689        O  0.68517104  0.01838463  0.05548007    -0.88380
C690        C  0.79884802  0.11921294  0.47037902     0.83850
C691        C  0.91626145  0.16638255  0.00623094     1.05420
H692        H  0.75196029  0.07274430  0.01871307     0.37220
O693        O  0.76802533  0.07097357  0.03738115    -1.11040
O694        O  0.78719570  0.01636162  0.07582066    -0.67690
Ni695      Ni  0.77346500  0.02357220  0.03014341     1.26350
O696        O  0.82201930  0.14033363  0.49527451    -0.67920
O697        O  0.70999204  0.97855825  0.03490515    -0.80210
C698        C  0.79775171  0.97790666  0.49483987     0.83240
O699        O  0.78330464  0.97975617  0.02222004    -0.67380
Ni700      Ni  0.73739039  0.06870365  0.07512245     1.27450
Ni701      Ni  0.83037285  0.11646503  0.03512640     1.26060
H702        H  0.85580558  0.06762558  0.03547775     0.37780
O703        O  0.66582139  0.14929205  0.44961337    -0.82180
O704        O  0.81581271  0.16115029  0.37410675    -0.66860
O705        O  0.72833625  0.17613822  0.39962178    -1.13470
C706        C  0.64278786  0.02054223  0.38166520     1.04710
O707        O  0.77842128  0.13055727  0.32778075    -0.80070
O708        O  0.68899727  0.08621112  0.31705190    -0.67650
Ni709      Ni  0.73317642  0.18887747  0.44512560     1.34870
C710        C  0.67382867  0.11037605  0.31863340     0.83450
O711        O  0.81857360  0.23576862  0.38876430    -0.80610
O712        O  0.79852363  0.23739906  0.44051099    -0.90890
C713        C  0.81445446  0.15830499  0.34387499     0.83020
O714        O  0.74443800  0.14196013  0.46109676    -0.69090
O715        O  0.67592646  0.02604664  0.36607584    -0.88380
C716        C  0.77751473  0.14031944  0.45131330     0.83850
C717        C  0.82458719  0.25736630  0.41515603     1.05420
H718        H  0.73062565  0.09294614  0.40305440     0.37220
O719        O  0.72897385  0.10896592  0.38429180    -1.11040
O720        O  0.67479398  0.12849090  0.34557298    -0.67690
Ni721      Ni  0.68168555  0.11469964  0.39128318     1.26350
O722        O  0.79850596  0.16327369  0.42632907    -0.67920
O723        O  0.63640943  0.05131414  0.38646002    -0.80210
C724        C  0.63600053  0.13911361  0.42634491     0.83240
O725        O  0.63803780  0.12481990  0.39896467    -0.67380
Ni726      Ni  0.72663572  0.07812097  0.34662428     1.27450
Ni727      Ni  0.77461762  0.17134095  0.38643157     1.26060
H728        H  0.72600440  0.19702646  0.38586148     0.37780
O729        O  0.69675103  0.92990138  0.30153050    -0.82180
O730        O  0.78012110  0.01520013  0.16074925    -0.66860
O731        O  0.70668791  0.94775030  0.23406235    -1.13470
C732        C  0.78073927  0.87375445  0.22657653     1.04710
O733        O  0.77155383  0.95849380  0.13398986    -0.80070
O734        O  0.72481858  0.87573454  0.16237477    -0.67650
Ni735      Ni  0.70964765  0.97958143  0.27231364     1.34870
C736        C  0.68775110  0.85954544  0.17704583     0.83450
O737        O  0.71497981  0.00960551  0.19253769    -0.80610
O738        O  0.71514239  0.02644261  0.24599111    -0.90890
C739        C  0.77523903  0.99583649  0.13384522     0.83020
O740        O  0.77609953  0.01946905  0.27623453    -0.69090
O741        O  0.79783003  0.89562534  0.19947731    -0.88380
C742        C  0.80144135  0.04536958  0.25217145     0.83850
C743        C  0.70818020  0.02843146  0.21531001     1.05420
H744        H  0.80017628  0.97047933  0.21870020     0.37220
O745        O  0.77185552  0.95090453  0.20692966    -1.11040
O746        O  0.68438914  0.87185457  0.20535722    -0.67690
Ni747      Ni  0.72651318  0.90970236  0.23909550     1.26350
O748        O  0.79111367  0.03338391  0.22230823    -0.67920
O749        O  0.74994360  0.87302528  0.24284513    -0.80210
C750        C  0.66656925  0.88835255  0.29397992     0.83240
O751        O  0.67618736  0.87132001  0.27065276    -0.67380
Ni752      Ni  0.78426176  0.92818250  0.16909033     1.27450
Ni753      Ni  0.74449863  0.98192303  0.19818609     1.26060
H754        H  0.67564523  0.93034275  0.22620117     0.37780
O755        O  0.50596060  0.85768669  0.30492515    -0.82180
O756        O  0.62117239  0.82392032  0.39614243    -0.66860
O757        O  0.52903782  0.82692086  0.36081406    -1.13470
C758        C  0.61028879  0.97519547  0.39232126     1.04710
O759        O  0.65966195  0.88430630  0.42833291    -0.80070
O760        O  0.58162791  0.87501078  0.44638563    -0.67650
Ni761      Ni  0.52231916  0.81449783  0.31442240     1.34870
C762        C  0.54742460  0.87659090  0.44457424     0.83450
O763        O  0.54468256  0.76369186  0.37496333    -0.80610
O764        O  0.53316594  0.76664205  0.32099798    -0.90890
C765        C  0.65259354  0.84894914  0.41519504     0.83020
O766        O  0.58597830  0.85987003  0.30097673    -0.69090
O767        O  0.61680791  0.96027598  0.41906175    -0.88380
C768        C  0.62019331  0.86087719  0.31198460     0.83850
C769        C  0.53639418  0.74663441  0.34677706     1.05420
H770        H  0.62993588  0.90771942  0.36472526     0.37220
O771        O  0.60750886  0.89123596  0.38166877    -1.11040
O772        O  0.53266297  0.88032587  0.41592082    -0.67690
Ni773      Ni  0.55448366  0.88782781  0.36905038     1.26350
O774        O  0.61555308  0.83970450  0.33903767    -0.67920
O775        O  0.58277533  0.94976416  0.37054703    -0.80210
C776        C  0.49310339  0.87685296  0.32358890     0.83240
O777        O  0.50234218  0.88233336  0.35415614    -0.67380
Ni778      Ni  0.63512197  0.91922511  0.42273310     1.27450
Ni779      Ni  0.57711359  0.82693611  0.37833104     1.26060
H780        H  0.50136851  0.80683560  0.37286804     0.37780
O781        O  0.21163672  0.89710199  0.41018998    -0.82180
O782        O  0.21687514  0.03714024  0.48133025    -0.66860
O783        O  0.23322973  0.94654040  0.46672261    -1.13470
C784        C  0.08490298  0.85069459  0.49776786     1.04710
O785        O  0.19277599  0.00942994  0.03204910    -0.80070
O786        O  0.20035535  0.93114674  0.04356870    -0.67650
Ni787      Ni  0.26409127  0.94896942  0.42903072     1.34870
C788        C  0.20222261  0.89820467  0.03383211     0.83450
O789        O  0.29054645  0.03909781  0.46877013    -0.80610
O790        O  0.31610744  0.99976478  0.44852919    -0.90890
C791        C  0.20278579  0.03920903  0.00879132     0.83020
O792        O  0.25594041  0.98662043  0.39951881    -0.69090
O793        O  0.10488155  0.87676866  0.02310073    -0.88380
C794        C  0.23163410  0.00162574  0.40111796     0.83850
C795        C  0.32142313  0.03282846  0.46411999     1.05420
H796        H  0.14490843  0.94904924  0.46837059     0.37220
O797        O  0.16589495  0.94685968  0.48211739    -1.11040
O798        O  0.17929545  0.87706811  0.00888139    -0.67690
Ni799      Ni  0.17093493  0.90071617  0.46896803     1.26350
O800        O  0.21330665  0.00038351  0.42801766    -0.67920
O801        O  0.10652757  0.85657719  0.47140729    -0.80210
C802        C  0.18385377  0.86109823  0.42633303     0.83240
O803        O  0.18142194  0.85974029  0.45659443    -0.67380
Ni804      Ni  0.15326580  0.94212016  0.02762750     1.27450
Ni805      Ni  0.22723501  0.99365592  0.47368815     1.26060
H806        H  0.24934324  0.94501249  0.48547004     0.37780
O807        O  0.22239712  0.88698535  0.17662253    -0.82180
O808        O  0.36236131  0.89181329  0.10575939    -0.66860
O809        O  0.27187794  0.90835475  0.12015056    -1.13470
C810        C  0.17595209  0.75994220  0.08927576     1.04710
O811        O  0.33476424  0.86780068  0.05501497    -0.80070
O812        O  0.25638642  0.87526839  0.04334469    -0.67650
Ni813      Ni  0.27434946  0.93932427  0.15779329     1.34870
C814        C  0.22341392  0.87710647  0.05306157     0.83450
O815        O  0.36447918  0.96556136  0.11819250    -0.80610
O816        O  0.32523624  0.99126942  0.13833261    -0.90890
C817        C  0.36448951  0.87777070  0.07830620     0.83020
O818        O  0.31185450  0.93105662  0.18739507    -0.69090
O819        O  0.20208181  0.77984768  0.06394788    -0.88380
C820        C  0.32679253  0.90668225  0.18585421     0.83850
C821        C  0.35833240  0.99651896  0.12284558     1.05420
H822        H  0.27426716  0.81993892  0.11867463     0.37220
O823        O  0.27212046  0.84093091  0.10489563    -1.11040
O824        O  0.20233361  0.85426158  0.07805221    -0.67690
Ni825      Ni  0.22601160  0.84604266  0.11798251     1.26350
O826        O  0.32555490  0.88832343  0.15898040    -0.67920
O827        O  0.18183452  0.78162294  0.11560617    -0.80210
C828        C  0.18639341  0.85923902  0.16048578     0.83240
O829        O  0.18506647  0.85663003  0.13023906    -0.67380
Ni830      Ni  0.26743319  0.82825694  0.05940332     1.27450
Ni831      Ni  0.31894955  0.90226480  0.11329071     1.26060
H832        H  0.27038727  0.92443544  0.10135867     0.37780
O833        O  0.38368418  0.90432475  0.21703745    -0.82180
O834        O  0.47045868  0.99926500  0.35379597    -0.66860
O835        O  0.39105630  0.90375609  0.28995315    -1.13470
C836        C  0.31369589  0.96763932  0.29797334     1.04710
O837        O  0.41181340  0.97910539  0.38447856    -0.80070
O838        O  0.32240868  0.89970985  0.35914104    -0.67650
Ni839      Ni  0.41394468  0.89150741  0.25212698     1.34870
C840        C  0.29656789  0.87434413  0.33508142     0.83450
O841        O  0.46863316  0.92532622  0.32608557    -0.80610
O842        O  0.44643381  0.87780865  0.28252653    -0.90890
C843        C  0.45342386  0.00911023  0.37697301     0.83020
O844        O  0.46644388  0.95098657  0.24551026    -0.69090
O845        O  0.31543722  0.96051934  0.32865386    -0.88380
C846        C  0.48275691  0.98797487  0.26033030     0.83850
C847        C  0.46805008  0.89464664  0.30975078     1.05420
H848        H  0.41175106  0.00004153  0.30909899     0.37220
O849        O  0.39425153  0.96900540  0.31698518    -1.11040
O850        O  0.30860378  0.88465123  0.30522481    -0.67690
Ni851      Ni  0.36013206  0.93118743  0.28111334     1.26350
O852        O  0.47032197  0.99120381  0.28862101    -0.67920
O853        O  0.33259350  0.96081333  0.27528677    -0.80210
C854        C  0.34627510  0.90052305  0.21687688     0.83240
O855        O  0.32683967  0.89549921  0.24375756    -0.67380
Ni856      Ni  0.36225365  0.96613643  0.35511464     1.27450
Ni857      Ni  0.43213922  0.94899281  0.32219719     1.26060
H858        H  0.37140652  0.87539488  0.30166728     0.37780
O859        O  0.45714207  0.01570153  0.01155044    -0.82180
O860        O  0.46010526  0.17360932  0.43737005    -0.66860
O861        O  0.45039539  0.06795866  0.46467816    -1.13470
C862        C  0.59532768  0.13894404  0.43030672     1.04710
O863        O  0.48478092  0.16990157  0.38817751    -0.80070
O864        O  0.48235829  0.08984692  0.38404354    -0.67650
Ni865      Ni  0.42226038  0.04028252  0.00571496     1.34870
C866        C  0.48104793  0.05545059  0.39500833     0.83450
O867        O  0.39226887  0.09321163  0.45348740    -0.80610
O868        O  0.38134163  0.05873365  0.50185926    -0.90890
C869        C  0.46565065  0.18282943  0.40679967     0.83020
O870        O  0.46639505  0.09363935  0.02953917    -0.69090
O871        O  0.57556512  0.14242362  0.40447357    -0.88380
C872        C  0.46521635  0.12808458  0.02774487     0.83850
C873        C  0.36664181  0.06536479  0.47504566     1.05420
H874        H  0.53523125  0.17399386  0.45629865     0.37220
O875        O  0.51510000  0.14644979  0.44413222    -1.11040
O876        O  0.50202436  0.05986216  0.42208835    -0.67690
Ni877      Ni  0.51462820  0.09803338  0.46146128     1.26350
O878        O  0.46153773  0.14292183  0.49910914    -0.67920
O879        O  0.57789536  0.13019295  0.45838594    -0.80210
C880        C  0.49226944  0.02245437  0.49822854     0.83240
O881        O  0.51706935  0.05352454  0.47888335    -0.67380
Ni882      Ni  0.52780389  0.15338857  0.39776823     1.27450
Ni883      Ni  0.45419455  0.12125006  0.45219372     1.26060
H884        H  0.43390023  0.04563478  0.44767785     0.37780
O885        O  0.22938709  0.05863593  0.37003541    -0.82180
O886        O  0.32456503  0.14577282  0.23335437    -0.66860
O887        O  0.22893316  0.06624401  0.29712641    -1.13470
C888        C  0.29267403  0.98877226  0.28886312     1.04710
O889        O  0.30412772  0.08716278  0.20255843    -0.80070
O890        O  0.22479441  0.99768409  0.22782518    -0.67650
Ni891      Ni  0.21664587  0.08900592  0.33500747     1.34870
C892        C  0.19941929  0.97181061  0.25187810     0.83450
O893        O  0.25067683  0.14399374  0.26116383    -0.80610
O894        O  0.20302130  0.12158249  0.30467396    -0.90890
C895        C  0.33427129  0.12871844  0.21009724     0.83020
O896        O  0.27612075  0.14145738  0.34168257    -0.69090
O897        O  0.28568232  0.99067130  0.25817711    -0.88380
C898        C  0.31313959  0.15774000  0.32690881     0.83850
C899        C  0.21993582  0.14330885  0.27749688     1.05420
H900        H  0.32516946  0.08684920  0.27790655     0.37220
O901        O  0.29413652  0.06941825  0.27002374    -1.11040
O902        O  0.20971791  0.98379496  0.28173671    -0.67690
Ni903      Ni  0.25628279  0.03523097  0.30587369     1.26350
O904        O  0.31641750  0.14539417  0.29859287    -0.67920
O905        O  0.28581770  0.00759783  0.31158941    -0.80210
C906        C  0.22554596  0.02121396  0.37013063     0.83240
O907        O  0.22056026  0.00186311  0.34321701    -0.67380
Ni908      Ni  0.29122551  0.03753269  0.23181208     1.27450
Ni909      Ni  0.27424067  0.10740994  0.26493510     1.26060
H910        H  0.20058803  0.04666263  0.28538561     0.37780
O911        O  0.34041508  0.13144419  0.07604836    -0.82180
O912        O  0.49902694  0.13520915  0.14988841    -0.66860
O913        O  0.39332614  0.12536529  0.12254308    -1.13470
C914        C  0.46420749  0.27030120  0.15682848     1.04710
O915        O  0.49499719  0.15963676  0.19909631    -0.80070
O916        O  0.41495815  0.15741975  0.20310974    -0.67650
Ni917      Ni  0.36557400  0.09706284  0.08158844     1.34870
C918        C  0.38063506  0.15619786  0.19207098     0.83450
O919        O  0.41869447  0.06728937  0.13369716    -0.80610
O920        O  0.38458825  0.05660873  0.08523622    -0.90890
C921        C  0.50807748  0.14061769  0.18048975     0.83020
O922        O  0.41883732  0.14154243  0.05779885    -0.69090
O923        O  0.46766816  0.25053799  0.18267439    -0.88380
C924        C  0.45328964  0.14035007  0.05947214     0.83850
C925        C  0.39102855  0.04174667  0.11203184     1.05420
H926        H  0.49934788  0.21024669  0.13099950     0.37220
O927        O  0.47175080  0.19009826  0.14311444    -1.11040
O928        O  0.38511713  0.17709518  0.16491987    -0.67690
Ni929      Ni  0.42343418  0.18965618  0.12562499     1.26350
O930        O  0.46826984  0.13671610  0.08806878    -0.67920
O931        O  0.45560228  0.25293725  0.12872623    -0.80210
C932        C  0.34749239  0.16688354  0.08904452     0.83240
O933        O  0.37909710  0.19219239  0.10787016    -0.67380
Ni934      Ni  0.47856734  0.20274690  0.18946013     1.27450
Ni935      Ni  0.44663728  0.12922493  0.13503171     1.26060
H936        H  0.37103961  0.10892487  0.13958136     0.37780
O937        O  0.87877448  0.23081328  0.57778503    -0.82180
O938        O  0.88408970  0.37100949  0.64884513    -0.66860
O939        O  0.90018436  0.28023534  0.63426220    -1.13470
C940        C  0.75178147  0.18446257  0.66512989     1.04710
O941        O  0.85966936  0.34320147  0.69950198    -0.80070
O942        O  0.86712983  0.26470312  0.71103389    -0.67650
Ni943      Ni  0.93112169  0.28264370  0.59662470     1.34870
C944        C  0.86882162  0.23165510  0.70126672     0.83450
O945        O  0.95772002  0.37280556  0.63642394    -0.80610
O946        O  0.98311273  0.33337929  0.61608850    -0.90890
C947        C  0.86974374  0.37298076  0.67622120     0.83020
O948        O  0.92298577  0.32022840  0.56701919    -0.69090
O949        O  0.77172552  0.21052825  0.69047223    -0.88380
C950        C  0.89875885  0.33532949  0.56857472     0.83850
C951        C  0.98853428  0.36646866  0.63168292     1.05420
H952        H  0.81200341  0.28301612  0.63577695     0.37220
O953        O  0.83291207  0.28072866  0.64954418    -1.11040
O954        O  0.84589646  0.21065233  0.67628872    -0.67690
Ni955      Ni  0.83782436  0.23451895  0.63638892     1.26350
O956        O  0.88057780  0.33431000  0.59549608    -0.67920
O957        O  0.77339599  0.19048047  0.63873589    -0.80210
C958        C  0.85109303  0.19476237  0.59389692     0.83240
O959        O  0.84815752  0.19341216  0.62412172    -0.67380
Ni960      Ni  0.82015962  0.27587315  0.69505010     1.27450
Ni961      Ni  0.89433742  0.32745062  0.64121508     1.26060
H962        H  0.91620291  0.27861924  0.65303837     0.37780
O963        O  0.88903105  0.21948221  0.84399027    -0.82180
O964        O  0.02921999  0.22560095  0.77231396    -0.66860
O965        O  0.93823348  0.24125686  0.78733710    -1.13470
C966        C  0.84264355  0.09292049  0.75631332     1.04710
O967        O  0.00122229  0.20103249  0.72172595    -0.80070
O968        O  0.92288435  0.20857308  0.71052878    -0.67650
Ni969      Ni  0.94062180  0.27203631  0.82503622     1.34870
C970        C  0.88991573  0.21034114  0.72036154     0.83450
O971        O  0.03071858  0.29906066  0.78490983    -0.80610
O972        O  0.99111182  0.32416870  0.80540746    -0.90890
C973        C  0.03111159  0.21123040  0.74492111     0.83020
O974        O  0.97855994  0.26419180  0.85442945    -0.69090
O975        O  0.86861095  0.11301169  0.73093680    -0.88380
C976        C  0.99372255  0.24003325  0.85278165     0.83850
C977        C  0.02415373  0.32972737  0.78962110     1.05420
H978        H  0.94130023  0.15328832  0.78554791     0.37220
O979        O  0.93890588  0.17416903  0.77183001    -1.11040
O980        O  0.86879053  0.18723333  0.74527769    -0.67690
Ni981      Ni  0.89261856  0.17890349  0.78513739     1.26350
O982        O  0.99263271  0.22186947  0.82583069    -0.67920
O983        O  0.84865245  0.11445790  0.78273726    -0.80210
C984        C  0.85295104  0.19173587  0.82793473     0.83240
O985        O  0.85147348  0.18902602  0.79768419    -0.67380
Ni986      Ni  0.93394805  0.16148510  0.72630881     1.27450
Ni987      Ni  0.98553341  0.23562832  0.78015722     1.26060
H988        H  0.93653173  0.25732756  0.76863789     0.37780
O989        O  0.89622712  0.39206009  0.53725432    -0.82180
O990        O  0.99086620  0.47863254  0.90033438    -0.66860
O991        O  0.89554398  0.39924677  0.96432599    -1.13470
C992        C  0.95942853  0.32193108  0.95612669     1.04710
O993        O  0.97068018  0.41999883  0.86963616    -0.80070
O994        O  0.89121351  0.33068147  0.89517880    -0.67650
Ni995      Ni  0.88325791  0.42214843  0.00211229     1.34870
C996        C  0.86590842  0.30483382  0.91927511     0.83450
O997        O  0.91699350  0.47673921  0.92812918    -0.80610
O998        O  0.86939646  0.45446050  0.97165251    -0.90890
C999        C  0.00066390  0.46163221  0.87710366     0.83020
O1000       O  0.94270014  0.47473396  0.50861973    -0.69090
O1001       O  0.95207645  0.32356091  0.92547530    -0.88380
C1002       C  0.97969953  0.49099024  0.99382088     0.83850
C1003       C  0.88623620  0.47606231  0.94441645     1.05420
H1004       H  0.99180142  0.41997139  0.94497132     0.37220
O1005       O  0.96073200  0.40245101  0.93716744    -1.11040
O1006       O  0.87638901  0.31679666  0.94913201    -0.67690
Ni1007     Ni  0.92305008  0.36838594  0.97313386     1.26350
O1008       O  0.98294132  0.47851186  0.96555023    -0.67920
O1009       O  0.95271786  0.34087078  0.97885547    -0.80210
C1010       C  0.89255481  0.35471256  0.53748911     0.83240
O1011       O  0.88757267  0.33521721  0.51063845    -0.67380
Ni1012     Ni  0.95767695  0.37040112  0.89902365     1.27450
Ni1013     Ni  0.94068854  0.44030456  0.93200672     1.26060
H1014       H  0.86717301  0.37956472  0.95264121     0.37780
O1015       O  0.00826825  0.46707469  0.74188041    -0.82180
O1016       O  0.16462045  0.46799374  0.81658562    -0.66860
O1017       O  0.05947704  0.45918256  0.78911307    -1.13470
C1018       C  0.13082718  0.60384513  0.82407212     1.04710
O1019       O  0.16128742  0.49284238  0.86579640    -0.80070
O1020       O  0.08133649  0.49048923  0.86993885    -0.67650
Ni1021     Ni  0.03198293  0.43142420  0.74794767     1.34870
C1022       C  0.04699797  0.48931253  0.85903525     0.83450
O1023       O  0.08416727  0.40064909  0.80028353    -0.80610
O1024       O  0.04945710  0.38967784  0.75195493    -0.90890
C1025       C  0.17401304  0.47359667  0.84711962     0.83020
O1026       O  0.08561352  0.47509588  0.72419387    -0.69090
O1027       O  0.13408484  0.58383059  0.84982890    -0.88380
C1028       C  0.11989768  0.47368103  0.72621221     0.83850
C1029       C  0.05636998  0.37504862  0.77870751     1.05420
H1030       H  0.16559586  0.54356325  0.79777620     0.37220
O1031       O  0.13800407  0.52348154  0.80991369    -1.11040
O1032       O  0.05150467  0.51053165  0.83204609    -0.67690
Ni1033     Ni  0.08975946  0.52339077  0.79263026     1.26350
O1034       O  0.13443711  0.46989316  0.75492633    -0.67920
O1035       O  0.12214298  0.58662367  0.79593542    -0.80210
C1036       C  0.01480910  0.50195414  0.75548086     0.83240
O1037       O  0.04541648  0.52622151  0.77528811    -0.67380
Ni1038     Ni  0.14490593  0.53596248  0.85632815     1.27450
Ni1039     Ni  0.11250484  0.46255086  0.80172038     1.26060
H1040       H  0.03700136  0.44261353  0.80601474     0.37780
O1041       O  0.05058547  0.23758089  0.88394647    -0.82180
O1042       O  0.13763068  0.33284603  0.52066034    -0.66860
O1043       O  0.05813991  0.23725343  0.95688474    -1.13470
C1044       C  0.98063844  0.30095190  0.96515931     1.04710
O1045       O  0.07900586  0.31237835  0.55147142    -0.80070
O1046       O  0.98963138  0.23297262  0.52612196    -0.67650
Ni1047     Ni  0.08090435  0.22487991  0.91905297     1.34870
C1048       C  0.96374984  0.20763470  0.00206437     0.83450
O1049       O  0.13592582  0.25905580  0.99287545    -0.80610
O1050       O  0.11347998  0.21131730  0.94943976    -0.90890
C1051       C  0.12057612  0.34251219  0.54394285     0.83020
O1052       O  0.13331916  0.28434470  0.91234796    -0.69090
O1053       O  0.98248798  0.29383374  0.99582987    -0.88380
C1054       C  0.14954181  0.32138213  0.92706354     0.83850
C1055       C  0.13527426  0.22832624  0.97657272     1.05420
H1056       H  0.07873950  0.33348987  0.97613751     0.37220
O1057       O  0.06130185  0.30243871  0.98399043    -1.11040
O1058       O  0.97568657  0.21803337  0.97219918    -0.67690
Ni1059     Ni  0.02717041  0.26465558  0.94810521     1.26350
O1060       O  0.13724094  0.32470274  0.95538933    -0.67920
O1061       O  0.99953939  0.29422056  0.94240665    -0.80210
C1062       C  0.01324729  0.23390802  0.88380667     0.83240
O1063       O  0.99388618  0.22902693  0.91070615    -0.67380
Ni1064     Ni  0.02936467  0.29942074  0.52219922     1.27450
Ni1065     Ni  0.09929260  0.28254909  0.98908203     1.26060
H1066       H  0.03853525  0.20891810  0.96863987     0.37780
O1067       O  0.12477399  0.34957489  0.67852126    -0.82180
O1068       O  0.12681046  0.50684953  0.60418422    -0.66860
O1069       O  0.11772459  0.40160038  0.63172946    -1.13470
C1070       C  0.26233604  0.47257806  0.59676833     1.04710
O1071       O  0.15135547  0.50310694  0.55494317    -0.80070
O1072       O  0.14914712  0.42312372  0.55095100    -0.67650
Ni1073     Ni  0.08980467  0.37407252  0.67284497     1.34870
C1074       C  0.14806470  0.38886839  0.56195954     0.83450
O1075       O  0.05931436  0.42649874  0.62063493    -0.80610
O1076       O  0.04871767  0.39235405  0.66912916    -0.90890
C1077       C  0.13221563  0.51599355  0.57360256     0.83020
O1078       O  0.13401767  0.42760902  0.69643947    -0.69090
O1079       O  0.24237353  0.47587505  0.57099301    -0.88380
C1080       C  0.13244873  0.46181716  0.69461154     0.83850
C1081       C  0.03384902  0.39895657  0.64239332     1.05420
H1082       H  0.20224070  0.50768317  0.62289286     0.37220
O1083       O  0.18211363  0.48003306  0.61083795    -1.11040
O1084       O  0.16916636  0.39344636  0.58902751    -0.67690
Ni1085     Ni  0.18199413  0.43187990  0.62832049     1.26350
O1086       O  0.12872756  0.47656634  0.66595174    -0.67920
O1087       O  0.24522827  0.46421197  0.62494413    -0.80210
C1088       C  0.15998727  0.35646370  0.66524666     0.83240
O1089       O  0.18488004  0.38771016  0.64602907    -0.67380
Ni1090     Ni  0.19453572  0.48675167  0.56443286     1.27450
Ni1091     Ni  0.12122586  0.45468452  0.61910497     1.26060
H1092       H  0.10119646  0.37916580  0.61480344     0.37780
O1093       O  0.14118074  0.67435122  0.80488920    -0.82180
O1094       O  0.15241323  0.82403440  0.88025608    -0.66860
O1095       O  0.16807709  0.73697306  0.85482701    -1.13470
C1096       C  0.01254047  0.65076359  0.87291665     1.04710
O1097       O  0.12214043  0.78672705  0.92666324    -0.80070
O1098       O  0.07807752  0.69726574  0.93743628    -0.67650
Ni1099     Ni  0.18071783  0.74169395  0.80931633     1.34870
C1100       C  0.10241102  0.68228624  0.93586208     0.83450
O1101       O  0.22737727  0.82724538  0.86555100    -0.80610
O1102       O  0.22912633  0.80704078  0.81387554    -0.90890
C1103       C  0.14991952  0.82271725  0.91050934     0.83020
O1104       O  0.13371570  0.75277939  0.79330781    -0.69090
O1105       O  0.01779911  0.68384466  0.88843393    -0.88380
C1106       C  0.13189028  0.78574958  0.80305008     0.83850
C1107       C  0.24904236  0.83313941  0.83920884     1.05420
H1108       H  0.08458653  0.73872342  0.85140173     0.37220
O1109       O  0.10067897  0.73721574  0.87017563    -1.11040
O1110       O  0.12071219  0.68347992  0.90895806    -0.67690
Ni1111     Ni  0.10676174  0.69013951  0.86326674     1.26350
O1112       O  0.15471851  0.80678614  0.82805142    -0.67920
O1113       O  0.04348744  0.64461888  0.86821441    -0.80210
C1114       C  0.13119109  0.64458418  0.82816096     0.83240
O1115       O  0.11719745  0.64671876  0.85564457    -0.67380
Ni1116     Ni  0.06976587  0.73475638  0.90785924     1.27450
Ni1117     Ni  0.16297646  0.78307986  0.86795789     1.26060
H1118       H  0.18908044  0.73481802  0.86858030     0.37780
O1119       O  0.99951424  0.81625653  0.78206860    -0.82180
O1120       O  0.14936350  0.82794362  0.70660002    -0.66860
O1121       O  0.06204744  0.84315932  0.73213227    -1.13470
C1122       C  0.97652236  0.68761919  0.71429973     1.04710
O1123       O  0.11197782  0.79766748  0.66022124    -0.80070
O1124       O  0.02245033  0.75308700  0.64959789    -0.67650
Ni1125     Ni  0.06680514  0.85583642  0.77762927     1.34870
C1126       C  0.00737556  0.77733343  0.65118448     0.83450
O1127       O  0.15231519  0.90268996  0.72136869    -0.80610
O1128       O  0.13214695  0.90428783  0.77307834    -0.90890
C1129       C  0.14798718  0.82544508  0.67634209     0.83020
O1130       O  0.07783005  0.80878597  0.79357675    -0.69090
O1131       O  0.00961290  0.69305727  0.69866340    -0.87660
C1132       C  0.11081390  0.80698449  0.78384414     0.83850
C1133       C  0.15821716  0.92428956  0.74773681     1.05420
H1134       H  0.06418251  0.75986646  0.73552266     0.37220
O1135       O  0.06259037  0.77594750  0.71677925    -1.11040
O1136       O  0.00854835  0.79561153  0.67808629    -0.67690
Ni1137     Ni  0.01536759  0.78175485  0.72376335     1.26350
O1138       O  0.13197990  0.82999185  0.75891511    -0.67920
O1139       O  0.97008002  0.71838431  0.71892133    -0.80210
C1140       C  0.96972306  0.80614886  0.75881068     0.83240
O1141       O  0.97175785  0.79193220  0.73140121    -0.67380
Ni1142     Ni  0.06025123  0.74514035  0.67910114     1.27450
Ni1143     Ni  0.10828703  0.83826872  0.71898236     1.26060
H1144       H  0.05977399  0.86408278  0.71836888     0.37780
O1145       O  0.84939605  0.51409661  0.94910839    -0.82180
O1146       O  0.81700753  0.63013155  0.85798003    -0.66860
O1147       O  0.81896744  0.53738446  0.89314048    -1.13470
C1148       C  0.96732575  0.61808720  0.86208997     1.04710
O1149       O  0.87769623  0.66874130  0.82607723    -0.80070
O1150       O  0.86763288  0.59037005  0.80779501    -0.67650
Ni1151     Ni  0.80629799  0.53053102  0.93948462     1.34870
C1152       C  0.86872234  0.55585656  0.80949868     0.83450
O1153       O  0.75619644  0.55360017  0.87875323    -0.80610
O1154       O  0.75851896  0.54143690  0.93269638    -0.90890
C1155       C  0.84228374  0.66169077  0.83910863     0.83020
O1156       O  0.85163752  0.59412134  0.95315191    -0.69090
O1157       O  0.95250065  0.62454964  0.83528729    -0.88380
C1158       C  0.85289411  0.62846718  0.94212041     0.83850
C1159       C  0.73878493  0.54492137  0.90684518     1.05420
H1160       H  0.90019098  0.63808646  0.88963346     0.37220
O1161       O  0.88374820  0.61581771  0.87259169    -1.11040
O1162       O  0.87232452  0.54086820  0.83810252    -0.67690
Ni1163     Ni  0.87982959  0.56247295  0.88506075     1.26350
O1164       O  0.83200393  0.62401278  0.91497983    -0.67920
O1165       O  0.94175708  0.59037636  0.88373310    -0.80210
C1166       C  0.86839801  0.50101278  0.93048897     0.83240
O1167       O  0.87378407  0.51005160  0.89988607    -0.67380
Ni1168     Ni  0.91207446  0.64358731  0.83163173     1.27450
Ni1169     Ni  0.81947145  0.58574277  0.87567704     1.26060
H1170       H  0.79881292  0.50980545  0.88101683     0.37780
O1171       O  0.92197880  0.70492520  0.95260126    -0.82180
O1172       O  0.00718886  0.78840685  0.59327052    -0.66860
O1173       O  0.93966035  0.71490236  0.52006796    -1.13470
C1174       C  0.86587494  0.78922416  0.52748030     1.04710
O1175       O  0.95043011  0.77966517  0.62006329    -0.80070
O1176       O  0.86763578  0.73300298  0.59168379    -0.67650
Ni1177     Ni  0.97154949  0.71775431  0.98187428     1.34870
C1178       C  0.85133085  0.69598986  0.57690581     0.83450
O1179       O  0.00139967  0.72312161  0.56166709    -0.80610
O1180       O  0.01834839  0.72323934  0.50826046    -0.90890
C1181       C  0.98781894  0.78343545  0.62017775     0.83020
O1182       O  0.01148392  0.78417608  0.97786290    -0.69090
O1183       O  0.88759028  0.80612905  0.55465730    -0.88380
C1184       C  0.03735598  0.80952996  0.50191391     0.83850
C1185       C  0.02024888  0.71627692  0.53895167     1.05420
H1186       H  0.96252181  0.80849627  0.53540448     0.37220
O1187       O  0.94290052  0.78015066  0.54714398    -1.11040
O1188       O  0.86369167  0.69271145  0.54859625    -0.67690
Ni1189     Ni  0.90173787  0.73487568  0.51494766     1.26350
O1190       O  0.02532970  0.79925320  0.53177410    -0.67920
O1191       O  0.86520890  0.75849701  0.51114989    -0.80210
C1192       C  0.88040750  0.67482433  0.96013612     0.83240
O1193       O  0.86336306  0.68457173  0.98337358    -0.67380
Ni1194     Ni  0.92012301  0.79245942  0.58500950     1.27450
Ni1195     Ni  0.97383894  0.75272490  0.55591880     1.26060
H1196       H  0.92218810  0.68386811  0.52795816     0.37780
O1197       O  0.02990698  0.59710649  0.63454104    -0.82180
O1198       O  0.11357364  0.68220378  0.99377846    -0.66860
O1199       O  0.04004154  0.61475646  0.56703679    -1.13470
C1200       C  0.11437098  0.54097313  0.55974670     1.04710
O1201       O  0.10473699  0.62536897  0.96704621    -0.80070
O1202       O  0.05806390  0.54260193  0.49551612    -0.67650
Ni1203     Ni  0.04291379  0.64671251  0.60518877     1.34870
C1204       C  0.02105991  0.52631048  0.51031618     0.83450
O1205       O  0.04828467  0.67645303  0.52536755    -0.80610
O1206       O  0.04854479  0.69355592  0.57874383    -0.90890
C1207       C  0.10856090  0.66278693  0.96688912     0.83020
O1208       O  0.10934708  0.68655611  0.60920311    -0.69090
O1209       O  0.13122867  0.56260971  0.53252766    -0.88380
C1210       C  0.13472878  0.71241668  0.58514423     0.83850
C1211       C  0.04142103  0.69530307  0.54806532     1.05420
H1212       H  0.13363050  0.63757036  0.55169214     0.37220
O1213       O  0.10527559  0.61794405  0.53997403    -1.11040
O1214       O  0.01780896  0.53871846  0.53861244    -0.67690
Ni1215     Ni  0.06000668  0.57683389  0.57221263     1.26350
O1216       O  0.12443051  0.70040315  0.55528375    -0.67920
O1217       O  0.08364310  0.54032364  0.57606847    -0.80210
C1218       C  0.99988757  0.55550206  0.62703327     0.83240
O1219       O  0.00971215  0.53849059  0.60382169    -0.67380
Ni1220     Ni  0.11753846  0.59509563  0.50213215     1.27450
Ni1221     Ni  0.07788302  0.64889964  0.53116062     1.26060
H1222       H  0.00900778  0.59728061  0.55915525     0.37780
O1223       O  0.83916886  0.52436905  0.63819192    -0.82180
O1224       O  0.95506958  0.49124754  0.72891909    -0.66860
O1225       O  0.86250959  0.49391903  0.69414329    -1.13470
C1226       C  0.94410383  0.64235056  0.72519012     1.04710
O1227       O  0.99275635  0.55090225  0.76182329    -0.80070
O1228       O  0.91513567  0.54230814  0.77963304    -0.67650
Ni1229     Ni  0.85561765  0.48129841  0.64775926     1.34870
C1230       C  0.88088729  0.54379645  0.77779006     0.83450
O1231       O  0.87834277  0.43082120  0.70832077    -0.80610
O1232       O  0.86650905  0.43347903  0.65439211    -0.90890
C1233       C  0.98600111  0.51582087  0.74842287     0.83020
O1234       O  0.91920204  0.52673562  0.63412408    -0.69090
O1235       O  0.95080063  0.62762917  0.75197684    -0.88380
C1236       C  0.95351639  0.52788122  0.64506203     0.83850
C1237       C  0.86980747  0.41356763  0.68020519     1.05420
H1238       H  0.96348137  0.57480401  0.69786129     0.37220
O1239       O  0.94106589  0.55831130  0.71481147    -1.11040
O1240       O  0.86620298  0.54760338  0.74913108    -0.67690
Ni1241     Ni  0.88797237  0.55486408  0.70225006     1.26350
O1242       O  0.94898005  0.50673002  0.67209252    -0.67920
O1243       O  0.91628942  0.61679050  0.70360487    -0.80210
C1244       C  0.82639575  0.54363330  0.65681336     0.83240
O1245       O  0.83579265  0.54932428  0.68735752    -0.67380
Ni1246     Ni  0.96867672  0.58622648  0.75589928     1.27450
Ni1247     Ni  0.91075222  0.49406690  0.71148501     1.26060
H1248       H  0.83491761  0.47385866  0.70628607     0.37780
O1249       O  0.71720253  0.57107296  0.55001489    -0.82180
O1250       O  0.80366868  0.66583433  0.68693080    -0.66860
O1251       O  0.72435807  0.57049626  0.62296231    -1.13470
C1252       C  0.64693554  0.63427496  0.63113002     1.04710
O1253       O  0.74502327  0.64566267  0.71763447    -0.80070
O1254       O  0.65578761  0.56608309  0.69208453    -0.67650
Ni1255     Ni  0.74729843  0.55818628  0.58521305     1.34870
C1256       C  0.62993998  0.54077494  0.66799776     0.83450
O1257       O  0.80189467  0.59205215  0.65919008    -0.80610
O1258       O  0.77965446  0.54442194  0.61571428    -0.90890
C1259       C  0.78666836  0.67562459  0.71016553     0.83020
O1260       O  0.79983088  0.61764232  0.57867318    -0.69090
O1261       O  0.64851865  0.62683764  0.66177060    -0.88380
C1262       C  0.81605175  0.65464711  0.59344211     0.83850
C1263       C  0.80128937  0.56133009  0.64292378     1.05420
H1264       H  0.74500134  0.66672879  0.64228802     0.37220
O1265       O  0.72749347  0.63565497  0.65009182    -1.11040
O1266       O  0.64187783  0.55128580  0.63813102    -0.67690
Ni1267     Ni  0.69347247  0.59797969  0.61412042     1.26350
O1268       O  0.80357437  0.65790542  0.62171072    -0.67920
O1269       O  0.66591619  0.62762405  0.60838993    -0.80210
C1270       C  0.67988079  0.56745380  0.54974823     0.83240
O1271       O  0.66036894  0.56252299  0.57659134    -0.67380
Ni1272     Ni  0.69540153  0.63254989  0.68822803     1.27450
Ni1273     Ni  0.76538381  0.61565788  0.65527558     1.26060
H1274       H  0.70467760  0.54212953  0.63466140     0.37780
O1275       O  0.79397007  0.68432394  0.84612073    -0.82180
O1276       O  0.79257971  0.83889532  0.77079823    -0.66860
O1277       O  0.78469024  0.73425044  0.79842798    -1.13470
C1278       C  0.92905361  0.80585714  0.76292816     1.04710
O1279       O  0.81784996  0.83613989  0.72160091    -0.80070
O1280       O  0.81542535  0.75623406  0.71740660    -0.67650
Ni1281     Ni  0.75739124  0.70694289  0.83976118     1.34870
C1282       C  0.81437887  0.72194235  0.72823322     0.83450
O1283       O  0.72574076  0.75834480  0.78731095    -0.80610
O1284       O  0.71470917  0.72326665  0.83556551    -0.90890
C1285       C  0.79837823  0.84856417  0.74030980     0.83020
O1286       O  0.80053753  0.76085532  0.86337998    -0.69090
O1287       O  0.90887372  0.80896078  0.73722629    -0.88380
C1288       C  0.79873438  0.79487413  0.86119338     0.83850
C1289       C  0.70017164  0.73049336  0.80888103     1.05420
H1290       H  0.86861927  0.84047506  0.78953791     0.37220
O1291       O  0.84860320  0.81286721  0.77741002    -1.11040
O1292       O  0.83581951  0.72651742  0.75511464    -0.67690
Ni1293     Ni  0.84884756  0.76474780  0.79458651     1.26350
O1294       O  0.79481985  0.80914535  0.83241559    -0.67920
O1295       O  0.91202878  0.79736100  0.79110958    -0.80210
C1296       C  0.82845557  0.69052470  0.83209227     0.83240
O1297       O  0.85199798  0.72047941  0.81166770    -0.67380
Ni1298     Ni  0.86097731  0.81978432  0.73094281     1.27450
Ni1299     Ni  0.78761902  0.78702809  0.78572511     1.26060
H1300       H  0.76805215  0.71162930  0.78163559     0.37780
O1301       O  0.67473666  0.80011349  0.90872769    -0.82180
O1302       O  0.83159560  0.80158362  0.98312301    -0.66860
O1303       O  0.72653099  0.79281747  0.95555772    -1.13470
C1304       C  0.79768436  0.93734454  0.99070205     1.04710
O1305       O  0.82799651  0.82617542  0.53237813    -0.80070
O1306       O  0.74804469  0.82401415  0.53636924    -0.67650
Ni1307     Ni  0.69903605  0.76497826  0.91442140     1.34870
C1308       C  0.71382441  0.82300121  0.52537887     0.83450
O1309       O  0.75120575  0.73424712  0.96664245    -0.80610
O1310       O  0.71709254  0.72370099  0.91813792    -0.90890
C1311       C  0.84082742  0.80702076  0.51368588     0.83020
O1312       O  0.75262564  0.80909145  0.89082548    -0.69090
O1313       O  0.80088217  0.91727505  0.51644788    -0.88380
C1314       C  0.78679598  0.80746950  0.89272180     0.83850
C1315       C  0.72372911  0.70881430  0.94485298     1.05420
H1316       H  0.83265319  0.87715738  0.96447976     0.37220
O1317       O  0.80497899  0.85705725  0.97652463    -1.11040
O1318       O  0.71844557  0.84419354  0.49833851    -0.67690
Ni1319     Ni  0.75691789  0.85709448  0.95903529     1.26350
O1320       O  0.80145909  0.80371507  0.92140362    -0.67920
O1321       O  0.78934468  0.92032430  0.96250040    -0.80210
C1322       C  0.68166450  0.83533489  0.92200666     0.83240
O1323       O  0.71286241  0.86014763  0.94127829    -0.67380
Ni1324     Ni  0.81169086  0.86939545  0.52293804     1.27450
Ni1325     Ni  0.77950965  0.79616241  0.96821779     1.26060
H1326       H  0.70405143  0.77627962  0.97246101     0.37780
O1327       O  0.56271490  0.72559261  0.70351431    -0.82180
O1328       O  0.65789918  0.81257155  0.56675583    -0.66860
O1329       O  0.56235077  0.73307692  0.63057001    -1.13470
C1330       C  0.62596012  0.65550847  0.62214442     1.04710
O1331       O  0.63730579  0.75396100  0.53590035    -0.80070
O1332       O  0.55789648  0.66456382  0.56132269    -0.67650
Ni1333     Ni  0.54995386  0.75583859  0.66838109     1.34870
C1334       C  0.53258709  0.63867102  0.58540005     0.83450
O1335       O  0.58419096  0.81087980  0.59457803    -0.80610
O1336       O  0.53632784  0.78832565  0.63795293    -0.90890
C1337       C  0.66748023  0.79552404  0.54341871     0.83020
O1338       O  0.60939435  0.80830852  0.67503813    -0.69090
O1339       O  0.61881147  0.65738632  0.59148347    -0.88380
C1340       C  0.64645422  0.82447916  0.66036013     0.83850
C1341       C  0.55338891  0.81014945  0.61083056     1.05420
H1342       H  0.65853784  0.75361605  0.61120913     0.37220
O1343       O  0.62747467  0.73619851  0.60339272    -1.11040
O1344       O  0.54303689  0.65059277  0.61526365    -0.67690
Ni1345     Ni  0.58973229  0.70208125  0.63931598     1.26350
O1346       O  0.64980260  0.81213635  0.63205749    -0.67920
O1347       O  0.61925970  0.67439486  0.64493306    -0.80210
C1348       C  0.55906962  0.68826622  0.70368917     0.83240
O1349       O  0.55419315  0.66887238  0.67680063    -0.67380
Ni1350     Ni  0.62436148  0.70428035  0.56514946     1.27450
Ni1351     Ni  0.60763514  0.77422913  0.59835581     1.26060
H1352       H  0.53401749  0.71348401  0.61881886     0.37780
O1353       O  0.54410840  0.56392308  0.74344289    -0.82180
O1354       O  0.55105970  0.70435573  0.81536172    -0.66860
O1355       O  0.56614425  0.61302062  0.80013490    -1.13470
C1356       C  0.41789901  0.51768539  0.83127452     1.04710
O1357       O  0.52615306  0.67619826  0.86588203    -0.80070
O1358       O  0.53364105  0.59778079  0.87695019    -0.67650
Ni1359     Ni  0.59678580  0.61529023  0.76240446     1.34870
C1360       C  0.53527728  0.56474499  0.86708275     0.83450
O1361       O  0.62432457  0.70542762  0.80270534    -0.80610
O1362       O  0.64902800  0.66552889  0.78207316    -0.90890
C1363       C  0.53646274  0.70613555  0.84269473     0.83020
O1364       O  0.58922310  0.65346197  0.73306778    -0.69090
O1365       O  0.43805935  0.54360559  0.85665316    -0.88380
C1366       C  0.56519387  0.66876286  0.73474487     0.83850
C1367       C  0.65479163  0.69857192  0.79798097     1.05420
H1368       H  0.47846793  0.61654181  0.80204884     0.37220
O1369       O  0.49927611  0.61400711  0.81573982    -1.11040
O1370       O  0.51205905  0.54364676  0.84219616    -0.67690
Ni1371     Ni  0.50376540  0.56759369  0.80235901     1.26350
O1372       O  0.54715142  0.66779754  0.76173667    -0.67920
O1373       O  0.43933110  0.52379767  0.80477939    -0.80210
C1374       C  0.51642571  0.52780309  0.75948442     0.83240
O1375       O  0.51357520  0.52628020  0.78972876    -0.67380
Ni1376     Ni  0.48658022  0.60893754  0.86127536     1.27450
Ni1377     Ni  0.56081295  0.66048193  0.80741607     1.26060
H1378       H  0.58218236  0.61119564  0.81879666     0.37780
O1379       O  0.55594017  0.55339034  0.50958876    -0.82180
O1380       O  0.69623747  0.55924019  0.93819080    -0.66860
O1381       O  0.60524050  0.57493043  0.95303380    -1.13470
C1382       C  0.50963795  0.42652806  0.92216608     1.04710
O1383       O  0.66832131  0.53465044  0.88758201    -0.80070
O1384       O  0.58970025  0.54199066  0.87624929    -0.67650
Ni1385     Ni  0.60762331  0.60580907  0.49068252     1.34870
C1386       C  0.55662502  0.54360086  0.88608443     0.83450
O1387       O  0.69779065  0.63271790  0.95071361    -0.80610
O1388       O  0.65822044  0.65788294  0.97116402    -0.90890
C1389       C  0.69818054  0.54485453  0.91082051     0.83020
O1390       O  0.64535503  0.59782311  0.52021505    -0.69090
O1391       O  0.53565201  0.44653344  0.89679489    -0.88380
C1392       C  0.66053290  0.57366899  0.51863492     0.83850
C1393       C  0.69133577  0.66343926  0.95551248     1.05420
H1394       H  0.60834512  0.48695460  0.95139486     0.37220
O1395       O  0.60594550  0.50781559  0.93765563    -1.11040
O1396       O  0.53566274  0.52059303  0.91106281    -0.67690
Ni1397     Ni  0.55964573  0.51253178  0.95092249     1.26350
O1398       O  0.65959187  0.55557364  0.99168429    -0.67920
O1399       O  0.51572513  0.44808903  0.94859362    -0.80210
C1400       C  0.51985089  0.52568619  0.99354230     0.83240
O1401       O  0.51841857  0.52261475  0.96332254    -0.67380
Ni1402     Ni  0.60098984  0.49506518  0.89214003     1.27450
Ni1403     Ni  0.65256477  0.56929001  0.94596144     1.26060
H1404       H  0.60353006  0.59092702  0.93428265     0.37780
O1405       O  0.47442048  0.34075252  0.63757867    -0.82180
O1406       O  0.48640828  0.49061969  0.71329458    -0.66860
O1407       O  0.50123184  0.40310138  0.68765666    -1.13470
C1408       C  0.34562815  0.31775087  0.70553946     1.04710
O1409       O  0.45567650  0.45312833  0.75958665    -0.80070
O1410       O  0.41126368  0.36372396  0.77025193    -0.67650
Ni1411     Ni  0.51397549  0.40808265  0.64213285     1.34870
C1412       C  0.43539171  0.34851961  0.76865852     0.83450
O1413       O  0.56093874  0.49331844  0.69858161    -0.80610
O1414       O  0.56248721  0.47342265  0.64677563    -0.90890
C1415       C  0.48334624  0.48921332  0.74351270     0.83020
O1416       O  0.46702769  0.41935683  0.62626835    -0.69090
O1417       O  0.35119339  0.35084284  0.72122331    -0.88380
C1418       C  0.46542461  0.45243458  0.63610521     0.83850
C1419       C  0.58249293  0.49942376  0.67214370     1.05420
H1420       H  0.41811712  0.40551583  0.68430772     0.37220
O1421       O  0.43411710  0.40380122  0.70305151    -1.11040
O1422       O  0.45345239  0.34942343  0.74169546    -0.67690
Ni1423     Ni  0.43975731  0.35647648  0.69597197     1.26350
O1424       O  0.48845057  0.47339526  0.66106808    -0.67920
O1425       O  0.37632633  0.31126397  0.70072797    -0.80210
C1426       C  0.46422467  0.31088301  0.66081479     0.83240
O1427       O  0.44981027  0.31279772  0.68818638    -0.67380
Ni1428     Ni  0.40326031  0.40143704  0.74071352     1.27450
Ni1429     Ni  0.49650552  0.44939505  0.70092192     1.26060
H1430       H  0.52209440  0.40069959  0.70138837     0.37780
O1431       O  0.33278729  0.48286404  0.61588746    -0.82180
O1432       O  0.48279934  0.49550061  0.53978813    -0.66860
O1433       O  0.39501357  0.50974935  0.56575526    -1.13470
C1434       C  0.31043852  0.35420293  0.54804417     1.04710
O1435       O  0.44516924  0.46486742  0.99352813    -0.80070
O1436       O  0.35564410  0.41977887  0.98315019    -0.67650
Ni1437     Ni  0.40005657  0.52246169  0.61127881     1.34870
C1438       C  0.34034490  0.44381277  0.98480649     0.83450
O1439       O  0.48521835  0.56973181  0.55476842    -0.80610
O1440       O  0.46538857  0.57101994  0.60663565    -0.90890
C1441       C  0.48128000  0.49259817  0.50954804     0.83020
O1442       O  0.41123208  0.47541348  0.62697765    -0.69090
O1443       O  0.34352054  0.35996999  0.53218605    -0.88380
C1444       C  0.44428643  0.47379891  0.61711622     0.83850
C1445       C  0.49131283  0.59118036  0.58124728     1.05420
H1446       H  0.39785676  0.42685874  0.56888767     0.37220
O1447       O  0.39603851  0.44288458  0.55021170    -1.11040
O1448       O  0.34128883  0.46185876  0.51178311    -0.67690
Ni1449     Ni  0.34855714  0.44820297  0.55746507     1.26350
O1450       O  0.46540833  0.49705557  0.59224250    -0.67920
O1451       O  0.30361008  0.38468786  0.55276867    -0.80210
C1452       C  0.30285726  0.47253885  0.59269646     0.83240
O1453       O  0.30466561  0.45794794  0.56537267    -0.67380
Ni1454     Ni  0.39378603  0.41220837  0.51251235     1.27450
Ni1455     Ni  0.44145084  0.50528373  0.55239132     1.26060
H1456       H  0.39247178  0.53054481  0.55204992     0.37780
O1457       O  0.18294499  0.18113422  0.78240816    -0.82180
O1458       O  0.14896683  0.29637452  0.69151831    -0.66860
O1459       O  0.15201567  0.20413535  0.72656412    -1.13470
C1460       C  0.30026062  0.28543087  0.69485960     1.04710
O1461       O  0.20870664  0.33419166  0.65866150    -0.80070
O1462       O  0.20001710  0.25644639  0.64080317    -0.67650
Ni1463     Ni  0.13968616  0.19738583  0.77299093     1.34870
C1464       C  0.20164925  0.22228365  0.64273806     0.83450
O1465       O  0.08876701  0.21980348  0.71259259    -0.80610
O1466       O  0.09176523  0.20813938  0.76652369    -0.90890
C1467       C  0.17362014  0.32741003  0.67208484     0.83020
O1468       O  0.18504745  0.26102184  0.78645817    -0.69090
O1469       O  0.28542848  0.29218296  0.66816218    -0.88380
C1470       C  0.18607372  0.29525799  0.77548576     0.83850
C1471       C  0.07170371  0.21135892  0.74078427     1.05420
H1472       H  0.23279784  0.30508343  0.72247975     0.37220
O1473       O  0.21624096  0.28259838  0.70558933    -1.11040
O1474       O  0.20539240  0.20765154  0.67143588    -0.67690
Ni1475     Ni  0.21290901  0.22961456  0.71823527     1.26350
O1476       O  0.16488204  0.29065443  0.74845821    -0.67920
O1477       O  0.27480698  0.25791946  0.71663379    -0.80210
C1478       C  0.20211192  0.16832785  0.76370726     0.83240
O1479       O  0.20751135  0.17753948  0.73314002    -0.67380
Ni1480     Ni  0.24400352  0.31006451  0.66441362     1.27450
Ni1481     Ni  0.15198655  0.25223630  0.70913393     1.26060
H1482       H  0.13191036  0.17647858  0.71451082     0.37780
O1483       O  0.25516500  0.37173186  0.78598412    -0.82180
O1484       O  0.34024665  0.45479491  0.92686149    -0.66860
O1485       O  0.27288117  0.38157862  0.85347111    -1.13470
C1486       C  0.19910844  0.45587383  0.86091989     1.04710
O1487       O  0.28355919  0.44634721  0.95358313    -0.80070
O1488       O  0.20085634  0.39973383  0.92512070    -0.67650
Ni1489     Ni  0.30480942  0.38464946  0.81524120     1.34870
C1490       C  0.18464342  0.36269328  0.91041105     0.83450
O1491       O  0.33461155  0.38967334  0.89502122    -0.80610
O1492       O  0.35168522  0.39018979  0.84158058    -0.90890
C1493       C  0.32085979  0.44994250  0.95375078     0.83020
O1494       O  0.34452584  0.45110607  0.81138758    -0.69090
O1495       O  0.22088896  0.47286366  0.88806036    -0.88380
C1496       C  0.37042738  0.47640533  0.83545371     0.83850
C1497       C  0.35352173  0.38299563  0.87223768     1.05420
H1498       H  0.29573280  0.47509960  0.86890143     0.37220
O1499       O  0.27610138  0.44675963  0.88064424    -1.11040
O1500       O  0.19697207  0.35936735  0.88209803    -0.67690
Ni1501     Ni  0.23494218  0.40152784  0.84841764     1.26350
O1502       O  0.35852590  0.46594389  0.86532455    -0.67920
O1503       O  0.19838402  0.42508925  0.84464335    -0.80210
C1504       C  0.21359039  0.34161207  0.79351055     0.83240
O1505       O  0.19656434  0.35127543  0.81681566    -0.67380
Ni1506     Ni  0.25334808  0.45916662  0.91846452     1.27450
Ni1507     Ni  0.30701128  0.41928484  0.88939160     1.26060
H1508       H  0.25541733  0.35051214  0.86129083     0.37780
O1509       O  0.17294412  0.19123607  0.97159689    -0.82180
O1510       O  0.28843449  0.15692003  0.56182613    -0.66860
O1511       O  0.19613858  0.16039030  0.52741154    -1.13470
C1512       C  0.27844780  0.30880610  0.55889847     1.04710
O1513       O  0.32490233  0.21525506  0.59598776    -0.80070
O1514       O  0.24818859  0.20843350  0.61336460    -0.67650
Ni1515     Ni  0.18926389  0.14805906  0.98094769     1.34870
C1516       C  0.21416890  0.21024937  0.61121006     0.83450
O1517       O  0.21160636  0.09691310  0.54113340    -0.80610
O1518       O  0.20002480  0.10011562  0.98724790    -0.90890
C1519       C  0.31858901  0.18065616  0.58207307     0.83020
O1520       O  0.25285471  0.19356616  0.96743195    -0.69090
O1521       O  0.28556725  0.29420027  0.58558908    -0.88380
C1522       C  0.28712259  0.19457732  0.97827596     0.83850
C1523       C  0.20311186  0.07990591  0.51294339     1.05420
H1524       H  0.29734420  0.24091480  0.53161873     0.37220
O1525       O  0.27473336  0.22429455  0.54842736    -1.11040
O1526       O  0.19986346  0.21414671  0.58243834    -0.67690
Ni1527     Ni  0.22196521  0.22137429  0.53572587     1.26350
O1528       O  0.28251153  0.17314104  0.00517704    -0.67920
O1529       O  0.25065618  0.28327054  0.53729612    -0.80210
C1530       C  0.16046607  0.21066643  0.99030651     0.83240
O1531       O  0.17009214  0.21641538  0.52080155    -0.67380
Ni1532     Ni  0.30207631  0.25166605  0.58972291     1.27450
Ni1533     Ni  0.24422304  0.16011142  0.54463013     1.26060
H1534       H  0.16851081  0.14037100  0.53952627     0.37780
O1535       O  0.36344883  0.26390679  0.96768554    -0.82180
O1536       O  0.44653694  0.34866945  0.82661588    -0.66860
O1537       O  0.37343037  0.28149037  0.90014537    -1.13470
C1538       C  0.44787499  0.20784048  0.89289749     1.04710
O1539       O  0.43798210  0.29184644  0.80002989    -0.80070
O1540       O  0.39149848  0.20920720  0.82869128    -0.67650
Ni1541     Ni  0.37652110  0.31353976  0.93829814     1.34870
C1542       C  0.35448329  0.19298764  0.84345529     0.83450
O1543       O  0.38143205  0.34307697  0.85846640    -0.80610
O1544       O  0.38217801  0.36041291  0.91185699    -0.90890
C1545       C  0.44160541  0.32916784  0.79976967     0.83020
O1546       O  0.44299211  0.35320370  0.94212661    -0.69090
O1547       O  0.46477333  0.22948921  0.86568791    -0.88380
C1548       C  0.46829267  0.37906908  0.91803218     0.83850
C1549       C  0.37475351  0.36201936  0.88121764     1.05420
H1550       H  0.46696534  0.30435849  0.88466852     0.37220
O1551       O  0.43860169  0.28467836  0.87297491    -1.11040
O1552       O  0.35121238  0.20545247  0.87172473    -0.67690
Ni1553     Ni  0.39344645  0.24361606  0.90529355     1.26350
O1554       O  0.45778447  0.36713651  0.88816753    -0.67920
O1555       O  0.41709897  0.20714912  0.90916478    -0.80210
C1556       C  0.33346901  0.22227184  0.96021371     0.83240
O1557       O  0.34326054  0.20528601  0.93696574    -0.67380
Ni1558     Ni  0.45093245  0.26178692  0.83520614     1.27450
Ni1559     Ni  0.41109741  0.31554403  0.86416403     1.26060
H1560       H  0.34235601  0.26397863  0.89235241     0.37780
O1561       O  0.51630296  0.84779488  0.61573531    -0.82180
O1562       O  0.48262648  0.96378157  0.52576181    -0.66860
O1563       O  0.48566702  0.87114240  0.55988439    -1.13470
C1564       C  0.63414280  0.95338925  0.52862837     1.04710
O1565       O  0.54069984  0.99992159  0.99135416    -0.80070
O1566       O  0.53394329  0.92332987  0.97401851    -0.67650
Ni1567     Ni  0.47318797  0.86414692  0.60633327     1.34870
C1568       C  0.53560963  0.88922423  0.97615346     0.83450
O1569       O  0.42239010  0.88683813  0.54609011    -0.80610
O1570       O  0.42529150  0.87494699  0.59995842    -0.90890
C1571       C  0.50620893  0.99374166  0.50535784     0.83020
O1572       O  0.51870444  0.92767434  0.61997931    -0.69090
O1573       O  0.61965253  0.96061774  0.50192190    -0.88380
C1574       C  0.51983302  0.96201226  0.60915390     0.83850
C1575       C  0.40521262  0.87814593  0.57422778     1.05420
H1576       H  0.56635276  0.97233327  0.55584810     0.37220
O1577       O  0.54973514  0.94977105  0.53901471    -1.11040
O1578       O  0.53947926  0.87486718  0.50491245    -0.67690
Ni1579     Ni  0.54664405  0.89687989  0.55164717     1.26350
O1580       O  0.49848560  0.95750123  0.58224456    -0.67920
O1581       O  0.60852159  0.92545496  0.55014025    -0.80210
C1582       C  0.53573258  0.83530184  0.59704942     0.83240
O1583       O  0.54151165  0.84491275  0.56654812    -0.67380
Ni1584     Ni  0.57714227  0.97714668  0.49772004     1.27450
Ni1585     Ni  0.48558497  0.91937258  0.54275236     1.26060
H1586       H  0.46563788  0.84357413  0.54771775     0.37780
O1587       O  0.58921719  0.03825810  0.61974169    -0.82180
O1588       O  0.67395367  0.12160978  0.76069570    -0.66860
O1589       O  0.60674125  0.04835173  0.68727837    -1.13470
C1590       C  0.53305294  0.12279836  0.69443302     1.04710
O1591       O  0.61706330  0.11286194  0.78731450    -0.80070
O1592       O  0.53439309  0.06633063  0.75867950    -0.67650
Ni1593     Ni  0.63881562  0.05136211  0.64915513     1.34870
C1594       C  0.51812783  0.02934673  0.74386507     0.83450
O1595       O  0.66832660  0.05643324  0.72899007    -0.80610
O1596       O  0.68569280  0.05709222  0.67562554    -0.90890
C1597       C  0.65443865  0.11658602  0.78755059     0.83020
O1598       O  0.67847256  0.11780881  0.64521736    -0.69090
O1599       O  0.55460774  0.13961358  0.72168440    -0.88380
C1600       C  0.70432187  0.14314981  0.66928712     0.83850
C1601       C  0.68727345  0.04970845  0.70627500     1.05420
H1602       H  0.62958542  0.14192439  0.70269017     0.37220
O1603       O  0.60990633  0.11354785  0.71437850    -1.11040
O1604       O  0.53063296  0.02612883  0.71559941    -0.67690
Ni1605     Ni  0.56888540  0.06839018  0.68206721     1.26350
O1606       O  0.69236725  0.13271499  0.69915736    -0.67920
O1607       O  0.53244245  0.09208127  0.67814435    -0.80210
C1608       C  0.54757105  0.00833334  0.62721922     0.83240
O1609       O  0.53058348  0.01819827  0.65041629    -0.67380
Ni1610     Ni  0.58695171  0.12579377  0.75215835     1.27450
Ni1611     Ni  0.64079605  0.08608001  0.72321775     1.26060
H1612       H  0.58922130  0.01729163  0.69511232     0.37780
O1613       O  0.80802783  0.00783713  0.97165594    -0.82180
O1614       O  0.82043728  0.15770931  0.54772529    -0.66860
O1615       O  0.83495901  0.07009576  0.52178254    -1.13470
C1616       C  0.67947758  0.98535262  0.53959661     1.04710
O1617       O  0.79006351  0.12014215  0.59405335    -0.80070
O1618       O  0.74504411  0.03060744  0.60447636    -0.67650
Ni1619     Ni  0.84762084  0.07509899  0.97624739     1.34870
C1620       C  0.76912236  0.01536111  0.60280485     0.83450
O1621       O  0.89479413  0.16032434  0.53269608    -0.80610
O1622       O  0.89613266  0.14043247  0.98086013    -0.90890
C1623       C  0.81776591  0.15622626  0.57797884     0.83020
O1624       O  0.80054966  0.08621115  0.96053525    -0.69090
O1625       O  0.68517107  0.01838478  0.55548007    -0.88380
C1626       C  0.79884802  0.11921292  0.97037901     0.83850
C1627       C  0.91626147  0.16638255  0.50623093     1.05420
H1628       H  0.75196032  0.07274439  0.51871308     0.37220
O1629       O  0.76802536  0.07097364  0.53738116    -1.11040
O1630       O  0.78719566  0.01636164  0.57582065    -0.67690
Ni1631     Ni  0.77346496  0.02357224  0.53014341     1.26350
O1632       O  0.82201926  0.14033358  0.99527452    -0.67920
O1633       O  0.70999200  0.97855835  0.53490514    -0.80210
C1634       C  0.79775176  0.97790665  0.99483987     0.83240
O1635       O  0.78330456  0.97975617  0.52222003    -0.67380
Ni1636     Ni  0.73739045  0.06870376  0.57512246     1.27450
Ni1637     Ni  0.83037288  0.11646507  0.53512640     1.26060
H1638       H  0.85580555  0.06762557  0.53547775     0.37780
O1639       O  0.66582145  0.14929210  0.94961333    -0.82180
O1640       O  0.81581274  0.16115027  0.87410673    -0.66860
O1641       O  0.72833632  0.17613825  0.89962175    -1.13470
C1642       C  0.64278789  0.02054227  0.88166517     1.04710
O1643       O  0.77842132  0.13055729  0.82778072    -0.80070
O1644       O  0.68899731  0.08621116  0.81705187    -0.67650
Ni1645     Ni  0.73317648  0.18887750  0.94512556     1.34870
C1646       C  0.67382872  0.11037610  0.81863337     0.83450
O1647       O  0.81857367  0.23576862  0.88876428    -0.80610
O1648       O  0.79852369  0.23739907  0.94051097    -0.90890
C1649       C  0.81445450  0.15830500  0.84387497     0.83020
O1650       O  0.74443803  0.14196015  0.96109673    -0.69090
O1651       O  0.67592648  0.02604667  0.86607580    -0.88380
C1652       C  0.77751475  0.14031944  0.95131328     0.83850
C1653       C  0.82458725  0.25736632  0.91515600     1.05420
H1654       H  0.73062568  0.09294614  0.90305436     0.37220
O1655       O  0.72897389  0.10896594  0.88429177    -1.11040
O1656       O  0.67479405  0.12849096  0.84557294    -0.67690
Ni1657     Ni  0.68168560  0.11469969  0.89128314     1.26350
O1658       O  0.79850599  0.16327368  0.92632905    -0.67920
O1659       O  0.63640946  0.05131419  0.88645998    -0.80210
C1660       C  0.63600061  0.13911369  0.92634487     0.83240
O1661       O  0.63803786  0.12481997  0.89896462    -0.67380
Ni1662     Ni  0.72663575  0.07812099  0.84662424     1.27450
Ni1663     Ni  0.77461767  0.17134096  0.88643155     1.26060
H1664       H  0.72600449  0.19702651  0.88586144     0.37780
O1665       O  0.69675104  0.92990140  0.80153048    -0.82180
O1666       O  0.78012113  0.01520017  0.66074924    -0.66860
O1667       O  0.70668793  0.94775034  0.73406234    -1.13470
C1668       C  0.78073930  0.87375450  0.72657649     1.04710
O1669       O  0.77155380  0.95849383  0.63398984    -0.80070
O1670       O  0.72481858  0.87573457  0.66237474    -0.67650
Ni1671     Ni  0.70964767  0.97958146  0.77231364     1.34870
C1672       C  0.68775111  0.85954547  0.67704580     0.83450
O1673       O  0.71497985  0.00960556  0.69253769    -0.80610
O1674       O  0.71514242  0.02644265  0.74599111    -0.90890
C1675       C  0.77523902  0.99583652  0.63384521     0.83020
O1676       O  0.77609956  0.01946907  0.77623453    -0.69090
O1677       O  0.79783006  0.89562539  0.69947727    -0.88380
C1678       C  0.80144138  0.04536960  0.75217145     0.83850
C1679       C  0.70818024  0.02843151  0.71531001     1.05420
H1680       H  0.80017629  0.97047936  0.71870018     0.37220
O1681       O  0.77185554  0.95090456  0.70692964    -1.11040
O1682       O  0.68438915  0.87185461  0.70535719    -0.67690
Ni1683     Ni  0.72651320  0.90970239  0.73909547     1.26350
O1684       O  0.79111370  0.03338394  0.72230823    -0.67920
O1685       O  0.74994362  0.87302532  0.74284509    -0.80210
C1686       C  0.66656926  0.88835257  0.79397989     0.83240
O1687       O  0.67618738  0.87132004  0.77065273    -0.67380
Ni1688     Ni  0.78426176  0.92818254  0.66909030     1.27450
Ni1689     Ni  0.74449866  0.98192308  0.69818608     1.26060
H1690       H  0.67564525  0.93034280  0.72620116     0.37780
O1691       O  0.50596063  0.85768674  0.80492515    -0.82180
O1692       O  0.62117244  0.82392037  0.89614239    -0.66860
O1693       O  0.52903783  0.82692089  0.86081407    -1.13470
C1694       C  0.61028883  0.97519552  0.89232124     1.04710
O1695       O  0.65966196  0.88430631  0.92833291    -0.80070
O1696       O  0.58162793  0.87501083  0.94638563    -0.67650
Ni1697     Ni  0.52231916  0.81449786  0.81442240     1.34870
C1698       C  0.54742462  0.87659095  0.94457424     0.83450
O1699       O  0.54468258  0.76369189  0.87496333    -0.80610
O1700       O  0.53316591  0.76664207  0.82099799    -0.90890
C1701       C  0.65259356  0.84894916  0.91519502     0.83020
O1702       O  0.58597830  0.85987005  0.80097671    -0.69090
O1703       O  0.61680797  0.96027603  0.91906173    -0.88380
C1704       C  0.62019331  0.86087721  0.81198458     0.83850
C1705       C  0.53639416  0.74663442  0.84677706     1.05420
H1706       H  0.62993590  0.90771945  0.86472525     0.37220
O1707       O  0.60750888  0.89123599  0.88166876    -1.11040
O1708       O  0.53266300  0.88032592  0.91592083    -0.67690
Ni1709     Ni  0.55448368  0.88782784  0.86905038     1.26350
O1710       O  0.61555309  0.83970453  0.83903765    -0.67920
O1711       O  0.58277535  0.94976420  0.87054703    -0.80210
C1712       C  0.49310341  0.87685300  0.82358891     0.83240
O1713       O  0.50234220  0.88233340  0.85415615    -0.67380
Ni1714     Ni  0.63512200  0.91922514  0.92273309     1.27450
Ni1715     Ni  0.57711362  0.82693615  0.87833103     1.26060
H1716       H  0.50136853  0.80683564  0.87286805     0.37780
O1717       O  0.21163671  0.89710200  0.91018997    -0.82180
O1718       O  0.21687521  0.03714026  0.98133028    -0.66860
O1719       O  0.23322973  0.94654039  0.96672261    -1.13470
C1720       C  0.08490296  0.85069458  0.99776782     1.04710
O1721       O  0.19277602  0.00942997  0.53204909    -0.80070
O1722       O  0.20035537  0.93114675  0.54356872    -0.67650
Ni1723     Ni  0.26409127  0.94896941  0.92903072     1.34870
C1724       C  0.20222263  0.89820468  0.53383213     0.83450
O1725       O  0.29054651  0.03909779  0.96877020    -0.80610
O1726       O  0.31610744  0.99976473  0.94852920    -0.90890
C1727       C  0.20278579  0.03920904  0.50879130     0.83020
O1728       O  0.25594043  0.98662043  0.89951881    -0.69090
O1729       O  0.10488157  0.87676868  0.52310076    -0.88380
C1730       C  0.23163414  0.00162577  0.90111798     0.83850
C1731       C  0.32142316  0.03282840  0.96412004     1.05420
H1732       H  0.14490846  0.94904927  0.96837057     0.37220
O1733       O  0.16589497  0.94685970  0.98211738    -1.11040
O1734       O  0.17929548  0.87706813  0.50888140    -0.67690
Ni1735     Ni  0.17093493  0.90071618  0.96896801     1.26350
O1736       O  0.21330673  0.00038357  0.92801768    -0.67920
O1737       O  0.10652757  0.85657719  0.97140726    -0.80210
C1738       C  0.18385377  0.86109823  0.92633302     0.83240
O1739       O  0.18142194  0.85974029  0.95659442    -0.67380
Ni1740     Ni  0.15326582  0.94212018  0.52762752     1.27450
Ni1741     Ni  0.22723505  0.99365592  0.97368817     1.26060
H1742       H  0.24934324  0.94501246  0.98547003     0.37780
O1743       O  0.22239709  0.88698532  0.67662257    -0.82180
O1744       O  0.36236127  0.89181328  0.60575944    -0.66860
O1745       O  0.27187790  0.90835473  0.62015060    -1.13470
C1746       C  0.17595206  0.75994218  0.58927580     1.04710
O1747       O  0.33476421  0.86780065  0.55501502    -0.80070
O1748       O  0.25638640  0.87526838  0.54334473    -0.67650
Ni1749     Ni  0.27434941  0.93932424  0.65779333     1.34870
C1750       C  0.22341391  0.87710647  0.55306160     0.83450
O1751       O  0.36447913  0.96556135  0.61819254    -0.80610
O1752       O  0.32523618  0.99126940  0.63833264    -0.90890
C1753       C  0.36448947  0.87777067  0.57830626     0.83020
O1754       O  0.31185448  0.93105662  0.68739510    -0.69090
O1755       O  0.20208178  0.77984767  0.56394791    -0.88380
C1756       C  0.32679251  0.90668225  0.68585425     0.83850
C1757       C  0.35833234  0.99651895  0.62284560     1.05420
H1758       H  0.27426712  0.81993891  0.61867468     0.37220
O1759       O  0.27212043  0.84093089  0.60489567    -1.11040
O1760       O  0.20233359  0.85426158  0.57805224    -0.67690
Ni1761     Ni  0.22601156  0.84604264  0.61798254     1.26350
O1762       O  0.32555486  0.88832342  0.65898043    -0.67920
O1763       O  0.18183448  0.78162292  0.61560620    -0.80210
C1764       C  0.18639337  0.85923899  0.66048582     0.83240
O1765       O  0.18506643  0.85663001  0.63023910    -0.67380
Ni1766     Ni  0.26743316  0.82825692  0.55940337     1.27450
Ni1767     Ni  0.31894951  0.90226479  0.61329075     1.26060
H1768       H  0.27038723  0.92443543  0.60135871     0.37780
O1769       O  0.38368418  0.90432478  0.71703747    -0.82180
O1770       O  0.47045870  0.99926504  0.85379598    -0.66860
O1771       O  0.39105632  0.90375612  0.78995317    -1.13470
C1772       C  0.31369588  0.96763931  0.79797337     1.04710
O1773       O  0.41181343  0.97910544  0.88447858    -0.80070
O1774       O  0.32240870  0.89970986  0.85914107    -0.67650
Ni1775     Ni  0.41394469  0.89150745  0.75212699     1.34870
C1776       C  0.29656791  0.87434413  0.83508145     0.83450
O1777       O  0.46863319  0.92532627  0.82608558    -0.80610
O1778       O  0.44643383  0.87780869  0.78252654    -0.90890
C1779       C  0.45342389  0.00911027  0.87697302     0.83020
O1780       O  0.46644389  0.95098660  0.74551027    -0.69090
O1781       O  0.31543722  0.96051934  0.82865388    -0.88380
C1782       C  0.48275693  0.98797490  0.76033031     0.83850
C1783       C  0.46805010  0.89464669  0.80975079     1.05420
H1784       H  0.41175107  0.00004156  0.80909900     0.37220
O1785       O  0.39425155  0.96900543  0.81698520    -1.11040
O1786       O  0.30860380  0.88465124  0.80522484    -0.67690
Ni1787     Ni  0.36013206  0.93118744  0.78111336     1.26350
O1788       O  0.47032199  0.99120385  0.78862102    -0.67920
O1789       O  0.33259349  0.96081333  0.77528679    -0.80210
C1790       C  0.34627509  0.90052307  0.71687691     0.83240
O1791       O  0.32683967  0.89549921  0.74375759    -0.67380
Ni1792     Ni  0.36225366  0.96613645  0.85511466     1.27450
Ni1793     Ni  0.43213924  0.94899285  0.82219720     1.26060
H1794       H  0.37140655  0.87539492  0.80166730     0.37780
O1795       O  0.45714170  0.01570130  0.51155032    -0.82180
O1796       O  0.46010520  0.17360923  0.93737006    -0.66860
O1797       O  0.45039553  0.06795868  0.96467821    -1.13470
C1798       C  0.59532776  0.13894412  0.93030668     1.04710
O1799       O  0.48478095  0.16990159  0.88817753    -0.80070
O1800       O  0.48235831  0.08984695  0.88404356    -0.67650
Ni1801     Ni  0.42226017  0.04028247  0.50571489     1.34870
C1802       C  0.48104797  0.05545064  0.89500834     0.83450
O1803       O  0.39226891  0.09321152  0.95348745    -0.80610
O1804       O  0.38134167  0.05873349  0.00185930    -0.90890
C1805       C  0.46565062  0.18282939  0.90679970     0.83020
O1806       O  0.46639493  0.09363925  0.52953913    -0.69090
O1807       O  0.57556516  0.14242367  0.90447354    -0.88380
C1808       C  0.46521631  0.12808454  0.52774485     0.83850
C1809       C  0.36664186  0.06536468  0.97504571     1.05420
H1810       H  0.53523128  0.17399390  0.95629866     0.37220
O1811       O  0.51510005  0.14644983  0.94413224    -1.11040
O1812       O  0.50202446  0.05986223  0.92208834    -0.67690
Ni1813     Ni  0.51462834  0.09803345  0.96146128     1.26350
O1814       O  0.46153773  0.14292183  0.99910916    -0.67920
O1815       O  0.57789549  0.13019307  0.95838590    -0.80210
C1816       C  0.49226977  0.02245456  0.99822861     0.83240
O1817       O  0.51706956  0.05352464  0.97888332    -0.67380
Ni1818     Ni  0.52780392  0.15338861  0.89776823     1.27450
Ni1819     Ni  0.45419459  0.12125003  0.95219375     1.26060
H1820       H  0.43390036  0.04563478  0.94767791     0.37780
O1821       O  0.22938712  0.05863596  0.87003542    -0.82180
O1822       O  0.32456504  0.14577280  0.73335437    -0.66860
O1823       O  0.22893317  0.06624401  0.79712642    -1.13470
C1824       C  0.29267402  0.98877224  0.78886314     1.04710
O1825       O  0.30412773  0.08716275  0.70255844    -0.80070
O1826       O  0.22479440  0.99768407  0.72782520    -0.67650
Ni1827     Ni  0.21664588  0.08900594  0.83500747     1.34870
C1828       C  0.19941928  0.97181060  0.75187812     0.83450
O1829       O  0.25067686  0.14399375  0.76116383    -0.80610
O1830       O  0.20302131  0.12158249  0.80467395    -0.90890
C1831       C  0.33427130  0.12871842  0.71009725     0.83020
O1832       O  0.27612076  0.14145739  0.84168256    -0.69090
O1833       O  0.28568228  0.99067127  0.75817714    -0.88380
C1834       C  0.31313960  0.15774000  0.82690881     0.83850
C1835       C  0.21993585  0.14330886  0.77749687     1.05420
H1836       H  0.32516946  0.08684918  0.77790656     0.37220
O1837       O  0.29413652  0.06941824  0.77002375    -1.11040
O1838       O  0.20971790  0.98379495  0.78173673    -0.67690
Ni1839     Ni  0.25628279  0.03523096  0.80587370     1.26350
O1840       O  0.31641752  0.14539416  0.79859287    -0.67920
O1841       O  0.28581769  0.00759782  0.81158943    -0.80210
C1842       C  0.22554598  0.02121399  0.87013064     0.83240
O1843       O  0.22056027  0.00186312  0.84321703    -0.67380
Ni1844     Ni  0.29122550  0.03753266  0.73181209     1.27450
Ni1845     Ni  0.27424068  0.10740993  0.76493510     1.26060
H1846       H  0.20058804  0.04666263  0.78538561     0.37780
O1847       O  0.34041515  0.13144429  0.57604831    -0.82180
O1848       O  0.49902691  0.13520911  0.64988840    -0.66860
O1849       O  0.39332614  0.12536531  0.62254307    -1.13470
C1850       C  0.46420750  0.27030120  0.65682850     1.04710
O1851       O  0.49499721  0.15963677  0.69909630    -0.80070
O1852       O  0.41495816  0.15741974  0.70310974    -0.67650
Ni1853     Ni  0.36557399  0.09706288  0.58158842     1.34870
C1854       C  0.38063507  0.15619785  0.69207098     0.83450
O1855       O  0.41869442  0.06728936  0.63369715    -0.80610
O1856       O  0.38458817  0.05660870  0.58523622    -0.90890
C1857       C  0.50807748  0.14061768  0.68048974     0.83020
O1858       O  0.41883733  0.14154242  0.55779884    -0.69090
O1859       O  0.46766817  0.25053799  0.68267439    -0.88380
C1860       C  0.45328963  0.14035003  0.55947212     0.83850
C1861       C  0.39102848  0.04174666  0.61203185     1.05420
H1862       H  0.49934788  0.21024668  0.63099949     0.37220
O1863       O  0.47175080  0.19009826  0.64311442    -1.11040
O1864       O  0.38511714  0.17709519  0.66491988    -0.67690
Ni1865     Ni  0.42343419  0.18965619  0.62562499     1.26350
O1866       O  0.46826981  0.13671605  0.58806877    -0.67920
O1867       O  0.45560230  0.25293727  0.62872624    -0.80210
C1868       C  0.34749244  0.16688362  0.58904449     0.83240
O1869       O  0.37909710  0.19219242  0.60787019    -0.67380
Ni1870     Ni  0.47856735  0.20274690  0.68946012     1.27450
Ni1871     Ni  0.44663726  0.12922492  0.63503170     1.26060
H1872       H  0.37103960  0.10892489  0.63958134     0.37780
loop_ 
_geom_bond_atom_site_label_1 
_geom_bond_atom_site_label_2 
_geom_bond_distance 
_geom_bond_site_symmetry_2 
_ccdc_geom_bond_type 
O1           Ni7   1.894       .  S
O1           C22   1.270       .  A
O2          Ni25   1.842       .  S
O2           C11   1.252       .  A
O3           Ni7   1.878       .  S
O3          Ni25   1.860       .  S
O3          Ni19   1.879       .  S
O3           H26   0.964       .  S
C4           O21   1.275       .  A
C4           O13   1.298       .  A
C4          C664   1.501       .  S
O5          Ni24   1.999       .  S
O5           C11   1.300       .  A
O6          Ni24   2.042       .  S
O6            C8   1.299       .  A
Ni7          O10   1.883       .  S
Ni7          O12   1.928       .  S
C8           O18   1.247       .  A
C8           C34   1.543       .  S
O9          Ni25   1.911       .  S
O9           C15   1.276       .  A
O10          C15   1.273       .  A
C11         C301   1.475       .  S
O12          C14   1.271       .  A
O13         Ni24   1.980       .  S
C14          O20   1.272       .  A
C14          C74   1.497       .  S
C15         C145   1.423   1_655  S
H16          O17   0.967       .  S
O17         Ni25   1.893       .  S
O17         Ni19   1.864       .  S
O17         Ni24   1.885       .  S
O18         Ni19   1.904       .  S
Ni19         O23   1.805       .  S
Ni19         O21   1.923       .  S
O20         Ni25   1.948       .  S
C22          O23   1.225       .  A
C22         C687   1.371       .  S
O27         Ni33   1.895       .  S
O27          C48   1.270       .  A
O28         Ni51   1.843   1_455  S
O28          C37   1.252       .  A
O29         Ni33   1.877       .  S
O29         Ni51   1.860       .  S
O29         Ni45   1.879       .  S
O29          H52   0.964       .  S
C30          O47   1.275       .  A
C30          O39   1.298       .  A
C30         C742   1.502       .  S
O31         Ni50   1.998   1_455  S
O31          C37   1.300       .  A
O32         Ni50   2.041       .  S
O32          C34   1.298       .  A
Ni33         O36   1.884       .  S
Ni33         O38   1.927       .  S
C34          O44   1.247       .  A
O35         Ni51   1.912   1_455  S
O35          C41   1.276       .  A
O36          C41   1.274   1_655  A
C37         C535   1.475       .  S
O38          C40   1.270       .  A
O39         Ni50   1.980       .  S
C40          O46   1.272       .  A
C40         C126   1.497   1_655  S
C41          C93   1.424       .  S
H42          O43   0.967       .  S
O43         Ni51   1.894       .  S
O43         Ni45   1.865       .  S
O43         Ni50   1.885       .  S
O44         Ni45   1.905       .  S
Ni45         O49   1.805       .  S
Ni45         O47   1.924       .  S
O46         Ni51   1.949       .  S
C48          O49   1.226       .  A
C48         C713   1.371       .  S
O53        Ni995   1.973       .  S
O53          C74   1.275       .  A
O54         Ni77   1.994       .  S
O54          C63   1.293   1_655  A
O55         Ni59   1.928       .  S
O55         Ni77   1.947       .  S
O55         Ni71   1.893       .  S
O55          H78   0.966       .  S
C56          O73   1.264       .  A
C56          O65   1.267       .  A
C56         C108   1.389       .  S
O57         Ni76   1.947       .  S
O57          C63   1.288   1_655  A
O58         Ni76   1.968       .  S
O58          C60   1.293       .  A
Ni59         O62   1.922       .  S
Ni59        O989   1.973       .  S
Ni59       O1000   1.896       .  S
C60          O70   1.265       .  A
C60         C717   1.501       .  S
O61         Ni77   1.938       .  S
O61          C67   1.291       .  A
O62          C67   1.278       .  A
C63          C86   1.559       .  S
O64        Ni995   1.896       .  S
O64        C1002   1.267   1_554  A
O65         Ni76   1.890       .  S
C66          O72   1.269       .  A
C66        O1000   1.267       .  A
C66        C1204   1.451   1_655  S
C67         C230   1.471       .  S
H68          O69   0.967       .  S
O69         Ni77   1.882       .  S
O69         Ni71   1.887       .  S
O69         Ni76   1.911       .  S
O70         Ni71   1.910       .  S
Ni71         O73   1.838       .  S
Ni71       O1011   1.901       .  S
O72         Ni77   1.908       .  S
C74          O75   1.259       .  A
O75       Ni1007   1.901   1_554  S
O79         Ni85   1.919       .  S
O79         C100   1.275       .  A
O80        Ni103   1.861       .  S
O80          C89   1.261       .  A
O81         Ni85   1.901       .  S
O81        Ni103   1.903       .  S
O81         Ni97   1.919       .  S
O81         H104   0.965       .  S
C82          O99   1.253       .  A
C82          O91   1.294       .  A
C82         C178   1.475       .  S
O83        Ni102   1.982       .  S
O83          C89   1.291       .  A
O84        Ni102   1.987       .  S
O84          C86   1.283       .  A
Ni85         O88   1.940       .  S
Ni85         O90   1.914       .  S
C86          O96   1.276       .  A
O87        Ni103   1.849       .  S
O87          C93   1.246       .  A
O88          C93   1.273       .  A
C89         C550   1.470       .  S
O90          C92   1.267       .  A
O91        Ni102   1.987       .  S
C92          O98   1.298       .  A
C92         C144   1.514       .  S
H94          O95   0.967       .  S
O95        Ni103   1.867       .  S
O95         Ni97   1.858       .  S
O95        Ni102   1.916       .  S
O96         Ni97   1.997       .  S
Ni97        O101   1.786       .  S
Ni97         O99   1.880       .  S
O98        Ni103   2.019       .  S
C100        O101   1.228       .  A
C100        C297   1.410   1_455  S
O105       Ni111   1.972       .  S
O105        C126   1.275       .  A
O106      Ni1065   1.995   1_554  S
O106        C115   1.293       .  A
O107       Ni111   1.929       .  S
O107       Ni129   1.947       .  S
O107       Ni123   1.893       .  S
O107        H130   0.966       .  S
C108        O125   1.264       .  A
C108        O117   1.267       .  A
O109       Ni128   1.947       .  S
O109        C115   1.287       .  A
O110       Ni128   1.968   1_655  S
O110       C1048   1.293       .  A
Ni111       O114   1.921       .  S
Ni111       O116   1.895       .  S
C112        O122   1.265       .  A
C112       O1046   1.293       .  A
C112       C1627   1.501       .  S
O113       Ni129   1.938       .  S
O113        C119   1.291       .  A
O114        C119   1.278       .  A
C115        C138   1.559       .  S
O116        C118   1.267       .  A
O117      Ni1064   1.889   1_655  S
C118        O124   1.269       .  A
C118        C554   1.450       .  S
C119        C594   1.471       .  S
H120        O121   0.967       .  S
O121       Ni129   1.882       .  S
O121       Ni123   1.886       .  S
O121      Ni1064   1.911       .  S
O122       Ni123   1.910   1_655  S
Ni123       O127   1.900   1_455  S
Ni123       O125   1.839   1_455  S
O124       Ni129   1.908       .  S
C126        O127   1.259   1_455  A
Ni128      O1053   1.889   1_454  S
Ni128      O1057   1.911   1_554  S
Ni129      O1042   1.995       .  S
O131       Ni137   1.918       .  S
O131        C152   1.275       .  A
O132       Ni155   1.860       .  S
O132        C141   1.261       .  A
O133       Ni137   1.900       .  S
O133       Ni155   1.903       .  S
O133       Ni149   1.920       .  S
O133        H156   0.965       .  S
C134        O151   1.253       .  A
C134        O143   1.294       .  A
C134        C516   1.475       .  S
O135       Ni154   1.984       .  S
O135        C141   1.292       .  A
O136       Ni154   1.987       .  S
O136        C138   1.283       .  A
Ni137       O140   1.939       .  S
Ni137       O142   1.914       .  S
C138        O148   1.276       .  A
O139       Ni155   1.850       .  S
O139        C145   1.246       .  A
O140        C145   1.272       .  A
C141        C264   1.471       .  S
O142        C144   1.267       .  A
O143       Ni154   1.988       .  S
C144        O150   1.299       .  A
H146        O147   0.967       .  S
O147       Ni155   1.867       .  S
O147       Ni149   1.857       .  S
O147       Ni154   1.915       .  S
O148       Ni149   1.997       .  S
Ni149       O153   1.787       .  S
Ni149       O151   1.880       .  S
O150       Ni155   2.020       .  S
C152        O153   1.228       .  A
C152        C531   1.410       .  S
O157       Ni163   2.000       .  S
O157        C178   1.300       .  A
O158       Ni181   1.806       .  S
O158        C167   1.225       .  A
O159       Ni163   1.885       .  S
O159       Ni181   1.865       .  S
O159       Ni175   1.892       .  S
O159        H182   0.967       .  S
C160        O177   1.275       .  A
C160        O169   1.274       .  A
C160        C212   1.423   1_455  S
O161       Ni180   1.896       .  S
O161        C167   1.270       .  A
O162       Ni180   1.928       .  S
O162        C164   1.271       .  A
Ni163       O166   1.980       .  S
Ni163       O168   2.041       .  S
C164        O174   1.272       .  A
C164        C271   1.496       .  S
O165       Ni181   1.923       .  S
O165        C171   1.275       .  A
O166        C171   1.298       .  A
C167        C802   1.372       .  S
O168        C170   1.299       .  A
O169       Ni180   1.884       .  S
C170        O176   1.247       .  A
C170        C196   1.542       .  S
C171        C840   1.501       .  S
H172        O173   0.964       .  S
O173       Ni181   1.879       .  S
O173       Ni175   1.860       .  S
O173       Ni180   1.878       .  S
O174       Ni175   1.947       .  S
Ni175       O179   1.842       .  S
Ni175       O177   1.910       .  S
O176       Ni181   1.904       .  S
C178        O179   1.252       .  A
O183       Ni189   1.998   1_655  S
O183        C204   1.300       .  A
O184       Ni207   1.805       .  S
O184        C193   1.225       .  A
O185       Ni189   1.884       .  S
O185       Ni207   1.865       .  S
O185       Ni201   1.893       .  S
O185        H208   0.967       .  S
C186        O203   1.276       .  A
C186        O195   1.274   1_655  A
C186        C290   1.423       .  S
O187       Ni206   1.896       .  S
O187        C193   1.270       .  A
O188       Ni206   1.928       .  S
O188        C190   1.271       .  A
Ni189       O192   1.980       .  S
Ni189       O194   2.041       .  S
C190        O200   1.272       .  A
C190        C245   1.496   1_455  S
O191       Ni207   1.923       .  S
O191        C197   1.275       .  A
O192        C197   1.298       .  A
C193        C828   1.372       .  S
O194        C196   1.298       .  A
O195       Ni206   1.884       .  S
C196        O202   1.247       .  A
C197        C892   1.501       .  S
H198        O199   0.964       .  S
O199       Ni207   1.878       .  S
O199       Ni201   1.860       .  S
O199       Ni206   1.877       .  S
O200       Ni201   1.947       .  S
Ni201       O205   1.842   1_455  S
Ni201       O203   1.911   1_455  S
O202       Ni207   1.905       .  S
C204        O205   1.252       .  A
C204        C342   1.474       .  S
O209       Ni215   1.984       .  S
O209        C230   1.292       .  A
O210       Ni233   1.786       .  S
O210        C219   1.228       .  A
O211       Ni215   1.914       .  S
O211       Ni233   1.856       .  S
O211       Ni227   1.866       .  S
O211        H234   0.967       .  S
C212        O229   1.246       .  A
C212        O221   1.272       .  A
O213       Ni232   1.918       .  S
O213        C219   1.275       .  A
O214       Ni232   1.914       .  S
O214        C216   1.268       .  A
Ni215       O218   1.987       .  S
Ni215       O220   1.988       .  S
C216        O226   1.299       .  A
C216        C294   1.514       .  S
O217       Ni233   1.881       .  S
O217        C223   1.253       .  A
O218        C223   1.294       .  A
C219        C360   1.409       .  S
O220        C222   1.283       .  A
O221       Ni232   1.937       .  S
C222        O228   1.275       .  A
C222        C256   1.559       .  S
C223        C453   1.476       .  S
H224        O225   0.965       .  S
O225       Ni233   1.920       .  S
O225       Ni227   1.903       .  S
O225       Ni232   1.900       .  S
O226       Ni227   2.020       .  S
Ni227       O231   1.860       .  S
Ni227       O229   1.851       .  S
O228       Ni233   1.996       .  S
C230        O231   1.262       .  A
O235       Ni241   1.946       .  S
O235        C256   1.287       .  A
O236       Ni259   1.900   1_455  S
O236        C245   1.259   1_455  A
O237       Ni259   1.886       .  S
O237       Ni253   1.882       .  S
O237      Ni1177   1.911   1_554  S
O237        H260   0.967       .  S
C238        O255   1.291       .  A
C238        O247   1.278       .  A
C238        C375   1.471       .  S
O239       Ni258   1.972       .  S
O239        C245   1.275       .  A
O240       Ni258   1.896       .  S
O240        C242   1.267       .  A
Ni241       O246   1.968   1_655  S
Ni241      O1180   1.889   1_655  S
Ni241      O1173   1.911       .  S
C242        O252   1.269       .  A
C242        C326   1.451       .  S
O243       Ni259   1.838   1_455  S
O243        C249   1.264       .  A
O244      Ni1177   1.889   1_454  S
O244        C249   1.267       .  A
O246       C1184   1.293       .  A
O247       Ni258   1.921       .  S
C248        O254   1.265       .  A
C248       O1182   1.293   1_554  A
C248       C1720   1.501   1_554  S
C249        C275   1.388       .  S
H250        O251   0.966       .  S
O251       Ni259   1.892       .  S
O251       Ni253   1.947       .  S
O251       Ni258   1.929       .  S
O252       Ni253   1.907       .  S
Ni253       O255   1.938       .  S
Ni253      O1193   1.995   1_554  S
O254       Ni259   1.910   1_455  S
C256        O257   1.293       .  A
O257      Ni1189   1.995       .  S
O261       Ni267   1.947       .  S
O261        C282   1.287   1_455  A
O262      Ni1221   1.900       .  S
O262        C271   1.259       .  A
O263       Ni267   1.911       .  S
O263       Ni285   1.887       .  S
O263       Ni279   1.882       .  S
O263        H286   0.967       .  S
C264        O281   1.291       .  A
C264        O273   1.278       .  A
O265      Ni1220   1.972       .  S
O265        C271   1.275       .  A
O266       Ni284   1.896   1_556  S
O266        C268   1.267   1_556  A
Ni267       O270   1.889       .  S
Ni267       O272   1.968       .  S
C268        O278   1.269       .  A
C268       C1002   1.451   1_454  S
O269       Ni285   1.838       .  S
O269        C275   1.264       .  A
O270        C275   1.267       .  A
O272        C274   1.293       .  A
O273       Ni284   1.922       .  S
C274        O280   1.265       .  A
C274        C810   1.501       .  S
H276        O277   0.966       .  S
O277       Ni285   1.892       .  S
O277       Ni279   1.947       .  S
O277       Ni284   1.929       .  S
O278       Ni279   1.908       .  S
Ni279       O283   1.995       .  S
Ni279       O281   1.938       .  S
O280       Ni285   1.910       .  S
C282        O283   1.293   1_655  A
C282        C300   1.559       .  S
Ni284      O1201   1.972   1_554  S
Ni285      O1198   1.900   1_554  S
O287       Ni293   1.983       .  S
O287        C308   1.292       .  A
O288       Ni311   1.787       .  S
O288        C297   1.228       .  A
O289       Ni293   1.915       .  S
O289       Ni311   1.858       .  S
O289       Ni305   1.867       .  S
O289        H312   0.967       .  S
C290        O307   1.246       .  A
C290        O299   1.272       .  A
O291       Ni310   1.918       .  S
O291        C297   1.275       .  A
O292       Ni310   1.914       .  S
O292        C294   1.267       .  A
Ni293       O296   1.988       .  S
Ni293       O298   1.988       .  S
C294        O304   1.299       .  A
O295       Ni311   1.880       .  S
O295        C301   1.253       .  A
O296        C301   1.294       .  A
O298        C300   1.283       .  A
O299       Ni310   1.939       .  S
C300        O306   1.276       .  A
H302        O303   0.965       .  S
O303       Ni311   1.919       .  S
O303       Ni305   1.904       .  S
O303       Ni310   1.900       .  S
O304       Ni305   2.020       .  S
Ni305       O309   1.861       .  S
Ni305       O307   1.849       .  S
O306       Ni311   1.997       .  S
C308        O309   1.262       .  A
C308        C327   1.471       .  S
O313       Ni319   1.973       .  S
O313        C334   1.275       .  A
O314       Ni337   1.994       .  S
O314        C323   1.293       .  A
O315       Ni319   1.928       .  S
O315       Ni337   1.947       .  S
O315       Ni331   1.893       .  S
O315        H338   0.966       .  S
C316        O333   1.264       .  A
C316        O325   1.267       .  A
C316        C394   1.389       .  S
O317       Ni336   1.948       .  S
O317        C323   1.288       .  A
O318       Ni336   1.968       .  S
O318        C320   1.293       .  A
Ni319       O322   1.922       .  S
Ni319       O324   1.895       .  S
C320        O330   1.265       .  A
C320        C483   1.501       .  S
O321       Ni337   1.938       .  S
O321        C327   1.291       .  A
O322        C327   1.278       .  A
C323        C346   1.559       .  S
O324        C326   1.267       .  A
O325       Ni336   1.890       .  S
C326        O332   1.269       .  A
H328        O329   0.967       .  S
O329       Ni337   1.882       .  S
O329       Ni331   1.887       .  S
O329       Ni336   1.911       .  S
O330       Ni331   1.911       .  S
Ni331       O335   1.901       .  S
Ni331       O333   1.839       .  S
O332       Ni337   1.908       .  S
C334        O335   1.259       .  A
C334        C456   1.497       .  S
O339       Ni345   1.919       .  S
O339        C360   1.275       .  A
O340       Ni363   1.861       .  S
O340        C349   1.261       .  A
O341       Ni345   1.901       .  S
O341       Ni363   1.904       .  S
O341       Ni357   1.917       .  S
O341        H364   0.965       .  S
C342        O359   1.252       .  A
C342        O351   1.294       .  A
O343       Ni362   1.981       .  S
O343        C349   1.291       .  A
O344       Ni362   1.987       .  S
O344        C346   1.282       .  A
Ni345       O348   1.941       .  S
Ni345       O350   1.913       .  S
C346        O356   1.276       .  A
O347       Ni363   1.846       .  S
O347        C353   1.246       .  A
O348        C353   1.274       .  A
C349        C732   1.470       .  S
O350        C352   1.266       .  A
O351       Ni362   1.987       .  S
C352        O358   1.298       .  A
C352        C378   1.514       .  S
C353        C431   1.423       .  S
H354        O355   0.967       .  S
O355       Ni363   1.867       .  S
O355       Ni357   1.859       .  S
O355       Ni362   1.917       .  S
O356       Ni357   1.997       .  S
Ni357       O361   1.786       .  S
Ni357       O359   1.878       .  S
O358       Ni363   2.018       .  S
C360        O361   1.228       .  A
O365       Ni371   1.918       .  S
O365        C386   1.275       .  A
O366       Ni389   1.860       .  S
O366       C1311   1.261       .  A
O367       Ni371   1.901       .  S
O367       Ni389   1.903       .  S
O367       Ni383   1.920       .  S
O367        H390   0.965       .  S
C368        O385   1.253       .  A
C368       O1313   1.294       .  A
C368        C698   1.475       .  S
O369       Ni388   1.984       .  S
O369        C375   1.292       .  A
O370       Ni388   1.987       .  S
O370        C372   1.283       .  A
Ni371       O374   1.939       .  S
Ni371       O376   1.913       .  S
C372        O382   1.276   1_554  A
C372        C401   1.558       .  S
O373       Ni389   1.849       .  S
O373        C379   1.246       .  A
O374        C379   1.272       .  A
C375       O1302   1.261   1_554  A
O376        C378   1.267       .  A
O377       Ni388   1.987       .  S
O377       C1304   1.294   1_554  A
C378        O384   1.299       .  A
C379        C457   1.423       .  S
H380        O381   0.967       .  S
O381       Ni389   1.867       .  S
O381       Ni383   1.857       .  S
O381      Ni1324   1.915       .  S
O382      Ni1319   1.997       .  S
Ni383       O387   1.788       .  S
Ni383       O385   1.880       .  S
Ni383      O1318   1.997       .  S
O384       Ni389   2.019       .  S
C386        O387   1.229       .  A
C386        C765   1.410       .  S
Ni388      O1317   1.915   1_554  S
O391       Ni397   1.972       .  S
O391        C412   1.275       .  A
O392       Ni415   1.994       .  S
O392        C401   1.293       .  A
O393       Ni397   1.928       .  S
O393       Ni415   1.947       .  S
O393       Ni409   1.893       .  S
O393        H416   0.966       .  S
C394        O411   1.264       .  A
C394        O403   1.267       .  A
O395       Ni414   1.947       .  S
O395        C401   1.287       .  A
O396       Ni414   1.968       .  S
O396        C398   1.293       .  A
Ni397       O400   1.921       .  S
Ni397       O402   1.895       .  S
C398        O408   1.265       .  A
C398        C509   1.501       .  S
O399       Ni415   1.937       .  S
O399        C405   1.290       .  A
O400        C405   1.278       .  A
O402        C404   1.267       .  A
O403       Ni414   1.889       .  S
C404        O410   1.270       .  A
C404        C736   1.451       .  S
C405        C646   1.470       .  S
H406        O407   0.967       .  S
O407       Ni415   1.882       .  S
O407       Ni409   1.886       .  S
O407       Ni414   1.911       .  S
O408       Ni409   1.910       .  S
Ni409       O413   1.901       .  S
Ni409       O411   1.839       .  S
O410       Ni415   1.908       .  S
C412        O413   1.259       .  A
C412        C430   1.497       .  S
O417       Ni423   1.894       .  S
O417        C438   1.270       .  A
O418       Ni441   1.843       .  S
O418        C427   1.253       .  A
O419       Ni423   1.876       .  S
O419       Ni441   1.859       .  S
O419       Ni435   1.878       .  S
O419        H442   0.964       .  S
C420        O437   1.274       .  A
C420        O429   1.298       .  A
C420        C560   1.501       .  S
O421       Ni440   1.998       .  S
O421        C427   1.300       .  A
O422       Ni440   2.041       .  S
O422        C424   1.298       .  A
Ni423       O426   1.883       .  S
Ni423       O428   1.927       .  S
C424        O434   1.248       .  A
C424        C450   1.544       .  S
O425       Ni441   1.912       .  S
O425        C431   1.276       .  A
O426        C431   1.273       .  A
C427        C769   1.475       .  S
O428        C430   1.270       .  A
O429       Ni440   1.981       .  S
C430        O436   1.272       .  A
H432        O433   0.967       .  S
O433       Ni441   1.894       .  S
O433       Ni435   1.865       .  S
O433       Ni440   1.885       .  S
O434       Ni435   1.906       .  S
Ni435       O439   1.804       .  S
Ni435       O437   1.923       .  S
O436       Ni441   1.950       .  S
C438        O439   1.226       .  A
C438        C479   1.370       .  S
O443       Ni449   1.894   1_554  S
O443       C1400   1.269   1_554  A
O444       Ni467   1.842       .  S
O444        C453   1.252       .  A
O445       Ni467   1.860       .  S
O445       Ni461   1.879       .  S
O445      Ni1385   1.877       .  S
O445        H468   0.964       .  S
C446        O463   1.275       .  A
C446        O455   1.298       .  A
C446        C612   1.501       .  S
O447       Ni466   2.000       .  S
O447        C453   1.300       .  A
O448       Ni466   2.042       .  S
O448        C450   1.299       .  A
Ni449       O454   1.928   1_556  S
Ni449      O1388   1.882       .  S
Ni449      O1381   1.877       .  S
C450        O460   1.247       .  A
O451       Ni467   1.912       .  S
O451        C457   1.276       .  A
O452      Ni1385   1.882       .  S
O452        C457   1.273       .  A
O454        C456   1.270       .  A
O455       Ni466   1.981       .  S
C456       O1398   1.272   1_554  A
H458        O459   0.967       .  S
O459       Ni467   1.894       .  S
O459       Ni461   1.864       .  S
O459       Ni466   1.885       .  S
O460       Ni461   1.905       .  S
Ni461       O465   1.805       .  S
Ni461       O463   1.923       .  S
O462       Ni467   1.949       .  S
O462       C1392   1.272       .  A
C464        O465   1.226       .  A
C464       O1379   1.269       .  A
C464       C1441   1.370       .  S
O469       Ni475   2.000       .  S
O469        C490   1.300       .  A
O470       Ni493   1.805       .  S
O470        C479   1.225       .  A
O471       Ni475   1.885       .  S
O471       Ni493   1.865       .  S
O471       Ni487   1.894       .  S
O471        H494   0.967       .  S
C472        O489   1.276       .  A
C472        O481   1.273       .  A
C472        C524   1.423       .  S
O473       Ni492   1.894       .  S
O473        C479   1.269       .  A
O474       Ni492   1.928       .  S
O474        C476   1.270       .  A
Ni475       O478   1.981       .  S
Ni475       O480   2.042       .  S
C476        O486   1.272       .  A
C476        C609   1.497       .  S
O477       Ni493   1.923       .  S
O477        C483   1.275       .  A
O478        C483   1.298       .  A
O480        C482   1.299       .  A
O481       Ni492   1.882       .  S
C482        O488   1.247       .  A
C482        C508   1.544       .  S
H484        O485   0.964       .  S
O485       Ni493   1.879       .  S
O485       Ni487   1.860       .  S
O485       Ni492   1.877       .  S
O486       Ni487   1.949       .  S
Ni487       O491   1.843       .  S
Ni487       O489   1.912       .  S
O488       Ni493   1.904       .  S
C490        O491   1.253       .  A
C490        C914   1.476       .  S
O495       Ni501   1.998       .  S
O495        C516   1.300       .  A
O496       Ni519   1.804       .  S
O496        C505   1.226       .  A
O497       Ni501   1.885       .  S
O497       Ni519   1.865       .  S
O497       Ni513   1.894       .  S
O497        H520   0.967       .  S
C498        O515   1.276       .  A
C498        O507   1.273       .  A
C498        C576   1.423       .  S
O499      Ni1454   1.894       .  S
O499       C1441   1.270       .  A
O500      Ni1454   1.927       .  S
O500        C502   1.270       .  A
Ni501       O504   1.981       .  S
Ni501       O506   2.041       .  S
C502       O1448   1.272       .  A
C502        C557   1.497       .  S
O503       Ni519   1.923       .  S
O503        C509   1.274       .  A
O504        C509   1.298       .  A
C505       O1435   1.270   1_554  A
C505       C1400   1.370   1_554  S
O506        C508   1.298       .  A
O507       Ni518   1.883       .  S
C508        O514   1.248       .  A
H510        O511   0.963       .  S
O511       Ni519   1.878       .  S
O511       Ni513   1.860       .  S
O511       Ni518   1.876       .  S
O512       Ni513   1.949       .  S
O512       C1438   1.272   1_554  A
Ni513       O517   1.844       .  S
Ni513       O515   1.912       .  S
O514       Ni519   1.906       .  S
C516        O517   1.253       .  A
Ni518      O1435   1.894   1_554  S
Ni518      O1436   1.927   1_554  S
O521       Ni527   1.983       .  S
O521        C542   1.292       .  A
O522       Ni545   1.787       .  S
O522        C531   1.228       .  A
O523       Ni527   1.915       .  S
O523       Ni545   1.857       .  S
O523       Ni539   1.867       .  S
O523        H546   0.967       .  S
C524        O541   1.246       .  A
C524        O533   1.272       .  A
O525       Ni544   1.918       .  S
O525        C531   1.275       .  A
O526       Ni544   1.914       .  S
O526        C528   1.267       .  A
Ni527       O530   1.987       .  S
Ni527       O532   1.987       .  S
C528        O538   1.299       .  A
C528        C580   1.514       .  S
O529       Ni545   1.880       .  S
O529        C535   1.253       .  A
O530        C535   1.294       .  A
O532        C534   1.283       .  A
O533       Ni544   1.939       .  S
C534        O540   1.276       .  A
C534        C568   1.559       .  S
H536        O537   0.965       .  S
O537       Ni545   1.920       .  S
O537       Ni539   1.903       .  S
O537       Ni544   1.901       .  S
O538       Ni539   2.019       .  S
Ni539       O543   1.860       .  S
Ni539       O541   1.849       .  S
O540       Ni545   1.997       .  S
C542        O543   1.261       .  A
C542        C899   1.471       .  S
O547       Ni553   1.947       .  S
O547        C568   1.287       .  A
O548       Ni571   1.901       .  S
O548        C557   1.259       .  A
O549       Ni553   1.911       .  S
O549       Ni571   1.886       .  S
O549       Ni565   1.882       .  S
O549        H572   0.967       .  S
C550        O567   1.291       .  A
C550        O559   1.278       .  A
O551       Ni570   1.972       .  S
O551        C557   1.275       .  A
O552       Ni570   1.895       .  S
O552        C554   1.267       .  A
Ni553       O556   1.889       .  S
Ni553       O558   1.968       .  S
C554        O564   1.269       .  A
O555       Ni571   1.839       .  S
O555        C561   1.264       .  A
O556        C561   1.267       .  A
O558        C560   1.293       .  A
O559       Ni570   1.921       .  S
C560        O566   1.265       .  A
C561        C613   1.389       .  S
H562        O563   0.966       .  S
O563       Ni571   1.893       .  S
O563       Ni565   1.947       .  S
O563       Ni570   1.929       .  S
O564       Ni565   1.908       .  S
Ni565       O569   1.995       .  S
Ni565       O567   1.938       .  S
O566       Ni571   1.910       .  S
C568        O569   1.293       .  A
O573       Ni579   1.982       .  S
O573        C594   1.291       .  A
O574       Ni597   1.787       .  S
O574        C583   1.228       .  A
O575       Ni597   1.859       .  S
O575       Ni591   1.867       .  S
O575      Ni1515   1.917   1_554  S
O575        H598   0.967       .  S
C576        O593   1.246       .  A
C576        O585   1.273       .  A
O577       Ni596   1.919       .  S
O577        C583   1.275       .  A
O578       Ni596   1.913       .  S
O578        C580   1.267       .  A
Ni579       O582   1.987       .  S
Ni579       O584   1.987       .  S
Ni579      O1511   1.917       .  S
C580        O590   1.298       .  A
O581       Ni597   1.879       .  S
O581        C587   1.252       .  A
O582       C1523   1.294       .  A
C583        C932   1.410       .  S
O584        C586   1.282       .  A
O585       Ni596   1.941       .  S
C586        O592   1.276       .  A
C586        C620   1.559       .  S
C587       O1518   1.294   1_554  A
C587        C791   1.475       .  S
H588        O589   0.965       .  S
O589       Ni597   1.918       .  S
O589       Ni591   1.904       .  S
O589       Ni596   1.901       .  S
O590       Ni591   2.018       .  S
Ni591       O595   1.861       .  S
Ni591       O593   1.847       .  S
O592      Ni1533   1.998       .  S
C594       O1531   1.261       .  A
O595       C1530   1.261   1_554  A
Ni597      O1528   1.998       .  S
O599       Ni605   1.948       .  S
O599        C620   1.288       .  A
O600       Ni623   1.901       .  S
O600        C609   1.259       .  A
O601       Ni605   1.911       .  S
O601       Ni623   1.887       .  S
O601       Ni617   1.882       .  S
O601        H624   0.967       .  S
C602        O619   1.291       .  A
C602        O611   1.278       .  A
C602        C869   1.471       .  S
O603       Ni622   1.972       .  S
O603        C609   1.275       .  A
O604       Ni622   1.895       .  S
O604        C606   1.267       .  A
Ni605       O608   1.889       .  S
Ni605       O610   1.969       .  S
C606        O616   1.269       .  A
C606        C898   1.451       .  S
O607       Ni623   1.839       .  S
O607        C613   1.264       .  A
O608        C613   1.267       .  A
O610        C612   1.293       .  A
O611       Ni622   1.922       .  S
C612        O618   1.265       .  A
H614        O615   0.966       .  S
O615       Ni623   1.893       .  S
O615       Ni617   1.947       .  S
O615       Ni622   1.928       .  S
O616       Ni617   1.908       .  S
Ni617       O621   1.994       .  S
Ni617       O619   1.937       .  S
O618       Ni623   1.911       .  S
C620        O621   1.293       .  A
O625       Ni631   1.981       .  S
O625        C646   1.291       .  A
O626       Ni649   1.786       .  S
O626        C635   1.227       .  A
O627       Ni631   1.917       .  S
O627       Ni649   1.859       .  S
O627       Ni643   1.867       .  S
O627        H650   0.967       .  S
C628        O645   1.246       .  A
C628        O637   1.274       .  A
C628        C680   1.423       .  S
O629      Ni1584   1.919       .  S
O629       C1571   1.275       .  A
O630      Ni1584   1.913       .  S
O630        C632   1.266       .  A
Ni631       O634   1.987       .  S
Ni631       O636   1.987       .  S
C632       O1578   1.298       .  A
C632        C762   1.514       .  S
O633       Ni649   1.878       .  S
O633        C639   1.252       .  A
O634        C639   1.294       .  A
C635       O1565   1.275   1_554  A
C635       C1816   1.409   1_564  S
O636        C638   1.282       .  A
O637       Ni648   1.941   1_554  S
C638        O644   1.275       .  A
C638        C672   1.559   1_565  S
C639        C817   1.474       .  S
H640        O641   0.965       .  S
O641       Ni649   1.917       .  S
O641       Ni643   1.904       .  S
O641       Ni648   1.901   1_554  S
O642       Ni643   2.018       .  S
O642       C1568   1.298   1_554  A
Ni643       O647   1.861       .  S
Ni643       O645   1.847       .  S
O644       Ni649   1.997       .  S
C646        O647   1.261       .  A
Ni648      O1565   1.919       .  S
Ni648      O1566   1.913       .  S
O651       Ni657   1.947       .  S
O651        C672   1.288       .  A
O652       Ni675   1.901       .  S
O652        C661   1.259       .  A
O653       Ni657   1.911       .  S
O653       Ni675   1.887       .  S
O653       Ni669   1.882       .  S
O653        H676   0.967       .  S
C654        O671   1.291       .  A
C654        O663   1.278       .  A
C654        C921   1.472       .  S
O655       Ni674   1.973       .  S
O655        C661   1.275       .  A
O656       Ni674   1.896       .  S
O656        C658   1.267       .  A
Ni657       O660   1.889       .  S
Ni657       O662   1.968       .  S
C658        O668   1.269       .  A
C658        C846   1.451   1_545  S
O659       Ni675   1.838       .  S
O659        C665   1.264       .  A
O660        C665   1.267       .  A
C661        C710   1.497       .  S
O662        C664   1.293       .  A
O663       Ni674   1.923       .  S
C664        O670   1.265       .  A
C665        C743   1.389       .  S
H666        O667   0.966       .  S
O667       Ni675   1.892       .  S
O667       Ni669   1.947       .  S
O667       Ni674   1.929       .  S
O668       Ni669   1.907       .  S
Ni669       O673   1.994       .  S
Ni669       O671   1.938       .  S
O670       Ni675   1.911       .  S
C672        O673   1.293       .  A
O677       Ni683   1.998       .  S
O677        C698   1.300   1_545  A
O678       Ni701   1.804       .  S
O678        C687   1.226       .  A
O679       Ni701   1.865       .  S
O679       Ni695   1.894       .  S
O679      Ni1619   1.885   1_554  S
O679        H702   0.967       .  S
C680        O697   1.276       .  A
C680        O689   1.274   1_565  A
O681       Ni700   1.895       .  S
O681        C687   1.270       .  A
O682       Ni700   1.927       .  S
O682        C684   1.270       .  A
Ni683       O686   1.981       .  S
Ni683       O688   2.041       .  S
Ni683      O1615   1.885       .  S
C684        O694   1.272       .  A
C684        C739   1.497   1_545  S
O685       Ni701   1.923       .  S
O685        C691   1.274       .  A
O686       C1627   1.298       .  A
O688        C690   1.298       .  A
O689       Ni700   1.883       .  S
C690        O696   1.248       .  A
C690        C716   1.543       .  S
C691       O1622   1.298   1_554  A
C691       C1048   1.501       .  S
H692        O693   0.964       .  S
O693       Ni701   1.878       .  S
O693       Ni695   1.859       .  S
O693       Ni700   1.876       .  S
O694       Ni695   1.949       .  S
Ni695       O699   1.843   1_545  S
Ni695       O697   1.912   1_545  S
O696      Ni1637   1.906       .  S
C698       O1635   1.253       .  A
O699       C1634   1.253   1_554  A
Ni701      O1632   1.906   1_554  S
O703       Ni709   2.000       .  S
O703        C724   1.300       .  A
O704       Ni727   1.806       .  S
O704        C713   1.225       .  A
O705       Ni709   1.885       .  S
O705       Ni727   1.865       .  S
O705       Ni721   1.893       .  S
O705        H728   0.967       .  S
C706        O723   1.276       .  A
C706        O715   1.273       .  A
C706        C758   1.423   1_545  S
O707       Ni726   1.895       .  S
O707        C713   1.270       .  A
O708       Ni726   1.928       .  S
O708        C710   1.271       .  A
Ni709       O712   1.981       .  S
Ni709       O714   2.042       .  S
C710        O720   1.272       .  A
O711       Ni727   1.923       .  S
O711        C717   1.275       .  A
O712        C717   1.298       .  A
O714        C716   1.299       .  A
O715       Ni726   1.883       .  S
C716        O722   1.247       .  A
H718        O719   0.964       .  S
O719       Ni727   1.879       .  S
O719       Ni721   1.860       .  S
O719       Ni726   1.878       .  S
O720       Ni721   1.948       .  S
Ni721       O725   1.843       .  S
Ni721       O723   1.911       .  S
O722       Ni727   1.904       .  S
C724        O725   1.252       .  A
C724        C862   1.476       .  S
O729       Ni735   1.947       .  S
O729        C750   1.288       .  A
O730       Ni753   1.901   1_545  S
O730        C739   1.259   1_545  A
O731       Ni735   1.911       .  S
O731       Ni753   1.886       .  S
O731       Ni747   1.882       .  S
O731        H754   0.967       .  S
C732        O749   1.291       .  A
C732        O741   1.278       .  A
O733       Ni752   1.972       .  S
O733        C739   1.275       .  A
O734       Ni752   1.895       .  S
O734        C736   1.267       .  A
Ni735       O738   1.889   1_565  S
Ni735       O740   1.969   1_565  S
C736        O746   1.270       .  A
O737       Ni753   1.838   1_545  S
O737        C743   1.264       .  A
O738        C743   1.267       .  A
O740        C742   1.293       .  A
O741       Ni752   1.921       .  S
C742        O748   1.265       .  A
H744        O745   0.966       .  S
O745       Ni753   1.893       .  S
O745       Ni747   1.947       .  S
O745       Ni752   1.929       .  S
O746       Ni747   1.908       .  S
Ni747       O751   1.994       .  S
Ni747       O749   1.938       .  S
O748       Ni753   1.910   1_545  S
C750        O751   1.293       .  A
C750        C768   1.559       .  S
O755       Ni761   1.984       .  S
O755        C776   1.292       .  A
O756       Ni779   1.788       .  S
O756        C765   1.229       .  A
O757       Ni761   1.914       .  S
O757       Ni779   1.857       .  S
O757       Ni773   1.867       .  S
O757        H780   0.967       .  S
C758        O775   1.246       .  A
C758        O767   1.272       .  A
O759       Ni778   1.918       .  S
O759        C765   1.275       .  A
O760       Ni778   1.914       .  S
O760        C762   1.268       .  A
Ni761       O764   1.988       .  S
Ni761       O766   1.987       .  S
C762        O772   1.299       .  A
O763       Ni779   1.880       .  S
O763        C769   1.253       .  A
O764        C769   1.294       .  A
O766        C768   1.283       .  A
O767       Ni778   1.938       .  S
C768        O774   1.276       .  A
H770        O771   0.965       .  S
O771       Ni779   1.921       .  S
O771       Ni773   1.903       .  S
O771       Ni778   1.900       .  S
O772       Ni773   2.019       .  S
Ni773       O777   1.861       .  S
Ni773       O775   1.850       .  S
O774       Ni779   1.997       .  S
C776        O777   1.262       .  A
C776        C847   1.472       .  S
O781       Ni787   1.896       .  S
O781        C802   1.270       .  A
O782       Ni805   1.843   1_545  S
O782       C1727   1.252       .  A
O783       Ni787   1.878       .  S
O783       Ni805   1.860       .  S
O783       Ni799   1.879       .  S
O783        H806   0.964       .  S
C784        O801   1.275       .  A
C784       O1729   1.298       .  A
C784       C1184   1.501       .  S
O785       Ni804   1.999   1_545  S
O785        C791   1.300       .  A
O786       Ni804   2.041       .  S
O786        C788   1.298       .  A
Ni787       O790   1.884       .  S
Ni787       O792   1.928       .  S
C788        O798   1.247       .  A
C788        C814   1.542       .  S
O789       Ni805   1.911   1_545  S
O789        C795   1.276       .  A
O790        C795   1.274   1_565  A
C791       O1718   1.252   1_554  A
O792        C794   1.271   1_565  A
O793       Ni804   1.980       .  S
O793       C1720   1.298   1_554  A
C794        O800   1.272       .  A
C794        C906   1.496       .  S
C795        C873   1.423       .  S
H796        O797   0.967       .  S
O797       Ni805   1.893       .  S
O797       Ni799   1.865       .  S
O797      Ni1740   1.884       .  S
O798      Ni1735   1.904   1_554  S
Ni799       O803   1.806       .  S
Ni799       O801   1.923       .  S
Ni799      O1734   1.904       .  S
O800       Ni805   1.947   1_545  S
C802        O803   1.225       .  A
Ni804      O1733   1.884   1_554  S
O807       Ni813   1.895       .  S
O807        C828   1.270       .  A
O808       Ni831   1.841       .  S
O808        C817   1.252       .  A
O809       Ni813   1.878       .  S
O809       Ni831   1.860       .  S
O809       Ni825   1.879       .  S
O809        H832   0.964       .  S
C810        O827   1.275       .  A
C810        O819   1.298       .  A
O811       Ni830   1.999       .  S
O811        C817   1.300       .  A
O812       Ni830   2.041       .  S
O812        C814   1.298       .  A
Ni813       O816   1.884       .  S
Ni813       O818   1.929       .  S
C814        O824   1.247       .  A
O815       Ni831   1.911       .  S
O815        C821   1.275       .  A
O816        C821   1.274       .  A
O818        C820   1.271       .  A
O819       Ni830   1.980       .  S
C820        O826   1.271       .  A
C820        C854   1.496       .  S
C821        C925   1.423   1_565  S
H822        O823   0.967       .  S
O823       Ni831   1.893       .  S
O823       Ni825   1.864       .  S
O823       Ni830   1.884       .  S
O824       Ni825   1.903       .  S
Ni825       O829   1.806       .  S
Ni825       O827   1.924       .  S
O826       Ni831   1.947       .  S
C828        O829   1.225       .  A
O833       Ni839   1.972       .  S
O833        C854   1.275       .  A
O834       Ni857   1.994       .  S
O834        C843   1.293   1_565  A
O835       Ni839   1.929       .  S
O835       Ni857   1.947       .  S
O835       Ni851   1.892       .  S
O835        H858   0.966       .  S
C836        O853   1.264       .  A
C836        O845   1.267       .  A
C836        C888   1.389       .  S
O837       Ni856   1.947       .  S
O837        C843   1.287   1_565  A
O838       Ni856   1.968       .  S
O838        C840   1.293       .  A
Ni839       O842   1.922       .  S
Ni839       O844   1.896       .  S
C840        O850   1.265       .  A
O841       Ni857   1.939       .  S
O841        C847   1.291       .  A
O842        C847   1.278       .  A
C843        C866   1.559       .  S
O844        C846   1.267       .  A
O845       Ni856   1.889       .  S
C846        O852   1.269       .  A
H848        O849   0.967   1_545  S
O849       Ni857   1.882       .  S
O849       Ni851   1.886       .  S
O849       Ni856   1.911       .  S
O850       Ni851   1.910       .  S
Ni851       O855   1.900       .  S
Ni851       O853   1.838       .  S
O852       Ni857   1.907       .  S
C854        O855   1.258       .  A
O859       Ni865   1.918       .  S
O859       C1816   1.275   1_554  A
O860       Ni883   1.860       .  S
O860        C869   1.262       .  A
O861       Ni883   1.903       .  S
O861       Ni877   1.919       .  S
O861      Ni1801   1.901       .  S
O861        H884   0.965       .  S
C862        O879   1.253       .  A
C862        O871   1.294       .  A
O863       Ni882   1.983       .  S
O863        C869   1.292       .  A
O864       Ni882   1.988       .  S
O864        C866   1.283       .  A
Ni865       O870   1.914       .  S
Ni865      O1804   1.938       .  S
Ni865      O1797   1.901   1_554  S
C866        O876   1.275       .  A
O867       Ni883   1.851       .  S
O867        C873   1.246       .  A
O868      Ni1801   1.938       .  S
O868        C873   1.272       .  A
O870        C872   1.268       .  A
O871       Ni882   1.988       .  S
C872       O1814   1.299   1_554  A
C872        C924   1.515       .  S
H874        O875   0.967       .  S
O875       Ni883   1.867       .  S
O875       Ni877   1.857       .  S
O875       Ni882   1.915       .  S
O876       Ni877   1.996       .  S
Ni877       O881   1.785       .  S
Ni877       O879   1.881       .  S
O878       Ni883   2.020       .  S
O878       C1808   1.299       .  A
C880        O881   1.228       .  A
C880       O1795   1.275       .  A
C880       C1571   1.409   1_545  S
O885       Ni891   1.972       .  S
O885        C906   1.275       .  A
O886       Ni909   1.995       .  S
O886        C895   1.293       .  A
O887       Ni891   1.929       .  S
O887       Ni909   1.947       .  S
O887       Ni903   1.892       .  S
O887        H910   0.966       .  S
C888        O905   1.264   1_565  A
C888        O897   1.267       .  A
O889       Ni908   1.946       .  S
O889        C895   1.287       .  A
O890       Ni908   1.968   1_565  S
O890        C892   1.293       .  A
Ni891       O894   1.921       .  S
Ni891       O896   1.896       .  S
C892        O902   1.265       .  A
O893       Ni909   1.938       .  S
O893        C899   1.291       .  A
O894        C899   1.278       .  A
C895        C918   1.559       .  S
O896        C898   1.267       .  A
O897       Ni908   1.889   1_565  S
C898        O904   1.269       .  A
H900        O901   0.967       .  S
O901       Ni909   1.882       .  S
O901       Ni903   1.886       .  S
O901       Ni908   1.911       .  S
O902       Ni903   1.909   1_565  S
Ni903       O907   1.900       .  S
Ni903       O905   1.838       .  S
O904       Ni909   1.908       .  S
C906        O907   1.259       .  A
O911       Ni917   1.918       .  S
O911        C932   1.275       .  A
O912       Ni935   1.861       .  S
O912        C921   1.262       .  A
O913       Ni917   1.900       .  S
O913       Ni935   1.903       .  S
O913       Ni929   1.921       .  S
O913        H936   0.965       .  S
C914        O931   1.253       .  A
C914        O923   1.294       .  A
O915       Ni934   1.984       .  S
O915        C921   1.292       .  A
O916       Ni934   1.988       .  S
O916        C918   1.283       .  A
Ni917       O920   1.938       .  S
Ni917       O922   1.914       .  S
C918        O928   1.275       .  A
O919       Ni935   1.852       .  S
O919        C925   1.246       .  A
O920        C925   1.272       .  A
O922        C924   1.268       .  A
O923       Ni934   1.988       .  S
C924        O930   1.300       .  A
H926        O927   0.967       .  S
O927       Ni935   1.867       .  S
O927       Ni929   1.857       .  S
O927       Ni934   1.914       .  S
O928       Ni929   1.996       .  S
Ni929       O933   1.786       .  S
Ni929       O931   1.881       .  S
O930       Ni935   2.021       .  S
C932        O933   1.228       .  A
O937       Ni943   1.894       .  S
O937        C958   1.270       .  A
O938       Ni961   1.842       .  S
O938        C947   1.252       .  A
O939       Ni943   1.878       .  S
O939       Ni961   1.860       .  S
O939       Ni955   1.879       .  S
O939        H962   0.964       .  S
C940        O957   1.275       .  A
C940        O949   1.298       .  A
C940       C1600   1.501       .  S
O941       Ni960   1.999       .  S
O941        C947   1.300       .  A
O942       Ni960   2.042       .  S
O942        C944   1.299       .  A
Ni943       O946   1.883       .  S
Ni943       O948   1.928       .  S
C944        O954   1.247       .  A
C944        C970   1.543       .  S
O945       Ni961   1.911       .  S
O945        C951   1.276       .  A
O946        C951   1.273       .  A
C947       C1237   1.475       .  S
O948        C950   1.271       .  A
O949       Ni960   1.980       .  S
C950        O956   1.272       .  A
C950       C1010   1.497       .  S
C951       C1081   1.423   1_655  S
H952        O953   0.967       .  S
O953       Ni961   1.893       .  S
O953       Ni955   1.864       .  S
O953       Ni960   1.885       .  S
O954       Ni955   1.904       .  S
Ni955       O959   1.805       .  S
Ni955       O957   1.923       .  S
O956       Ni961   1.948       .  S
C958        O959   1.225       .  A
C958       C1623   1.371       .  S
O963       Ni969   1.895       .  S
O963        C984   1.270       .  A
O964       Ni987   1.843   1_455  S
O964        C973   1.252       .  A
O965       Ni969   1.877       .  S
O965       Ni987   1.860       .  S
O965       Ni981   1.879       .  S
O965        H988   0.964       .  S
C966        O983   1.275       .  A
C966        O975   1.298       .  A
C966       C1678   1.502       .  S
O967       Ni986   1.998   1_455  S
O967        C973   1.300       .  A
O968       Ni986   2.041       .  S
O968        C970   1.298       .  A
Ni969       O972   1.884       .  S
Ni969       O974   1.927       .  S
C970        O980   1.247       .  A
O971       Ni987   1.912   1_455  S
O971        C977   1.276       .  A
O972        C977   1.274   1_655  A
C973       C1471   1.475       .  S
O974        C976   1.270       .  A
O975       Ni986   1.980       .  S
C976        O982   1.272       .  A
C976       C1062   1.497   1_655  S
C977       C1029   1.424       .  S
H978        O979   0.967       .  S
O979       Ni987   1.894       .  S
O979       Ni981   1.865       .  S
O979       Ni986   1.885       .  S
O980       Ni981   1.905       .  S
Ni981       O985   1.805       .  S
Ni981       O983   1.924       .  S
O982       Ni987   1.949       .  S
C984        O985   1.226       .  A
C984       C1649   1.371       .  S
O989       C1010   1.275       .  A
O990      Ni1013   1.994       .  S
O990        C999   1.293   1_655  A
O991       Ni995   1.928   1_556  S
O991      Ni1013   1.947       .  S
O991      Ni1007   1.893       .  S
O991       H1014   0.966       .  S
C992       O1009   1.264       .  A
C992       O1001   1.267       .  A
C992       C1044   1.389       .  S
O993      Ni1012   1.947       .  S
O993        C999   1.288   1_655  A
O994      Ni1012   1.968       .  S
O994        C996   1.293       .  A
Ni995       O998   1.922   1_554  S
C996       O1006   1.265       .  A
C996       C1653   1.501       .  S
O997      Ni1013   1.938       .  S
O997       C1003   1.291       .  A
O998       C1003   1.278       .  A
C999       C1022   1.559       .  S
O1001     Ni1012   1.890       .  S
C1002      O1008   1.269       .  A
C1003      C1166   1.471       .  S
H1004      O1005   0.967       .  S
O1005     Ni1013   1.882       .  S
O1005     Ni1007   1.887       .  S
O1005     Ni1012   1.911       .  S
O1006     Ni1007   1.910       .  S
Ni1007     O1009   1.838       .  S
O1008     Ni1013   1.908       .  S
C1010      O1011   1.259       .  A
O1015     Ni1021   1.919       .  S
O1015      C1036   1.275       .  A
O1016     Ni1039   1.861       .  S
O1016      C1025   1.261       .  A
O1017     Ni1021   1.901       .  S
O1017     Ni1039   1.903       .  S
O1017     Ni1033   1.919       .  S
O1017      H1040   0.965       .  S
C1018      O1035   1.253       .  A
C1018      O1027   1.294       .  A
C1018      C1114   1.475       .  S
O1019     Ni1038   1.982       .  S
O1019      C1025   1.291       .  A
O1020     Ni1038   1.987       .  S
O1020      C1022   1.283       .  A
Ni1021     O1024   1.940       .  S
Ni1021     O1026   1.914       .  S
C1022      O1032   1.276       .  A
O1023     Ni1039   1.849       .  S
O1023      C1029   1.246       .  A
O1024      C1029   1.273       .  A
C1025      C1486   1.470       .  S
O1026      C1028   1.267       .  A
O1027     Ni1038   1.987       .  S
C1028      O1034   1.298       .  A
C1028      C1080   1.514       .  S
H1030      O1031   0.967       .  S
O1031     Ni1039   1.867       .  S
O1031     Ni1033   1.858       .  S
O1031     Ni1038   1.916       .  S
O1032     Ni1033   1.997       .  S
Ni1033     O1037   1.786       .  S
Ni1033     O1035   1.880       .  S
O1034     Ni1039   2.019       .  S
C1036      O1037   1.228       .  A
C1036      C1233   1.410   1_455  S
O1041     Ni1047   1.972       .  S
O1041      C1062   1.275       .  A
O1042      C1051   1.293       .  A
O1043     Ni1047   1.929       .  S
O1043     Ni1065   1.947       .  S
O1043     Ni1059   1.893       .  S
O1043      H1066   0.966       .  S
C1044      O1061   1.264       .  A
C1044      O1053   1.267       .  A
O1045     Ni1064   1.947       .  S
O1045      C1051   1.287       .  A
O1046     Ni1064   1.968   1_655  S
Ni1047     O1050   1.921       .  S
Ni1047     O1052   1.895       .  S
C1048      O1058   1.265   1_554  A
O1049     Ni1065   1.938       .  S
O1049      C1055   1.291       .  A
O1050      C1055   1.278       .  A
C1051      C1074   1.559       .  S
O1052      C1054   1.267       .  A
C1054      O1060   1.269       .  A
C1054      C1490   1.450       .  S
C1055      C1530   1.471       .  S
H1056      O1057   0.967       .  S
O1057     Ni1065   1.882       .  S
O1057     Ni1059   1.886       .  S
O1058     Ni1059   1.910   1_655  S
Ni1059     O1063   1.900   1_455  S
Ni1059     O1061   1.839   1_455  S
O1060     Ni1065   1.908       .  S
C1062      O1063   1.259   1_455  A
O1067     Ni1073   1.918       .  S
O1067      C1088   1.275       .  A
O1068     Ni1091   1.860       .  S
O1068      C1077   1.261       .  A
O1069     Ni1073   1.900       .  S
O1069     Ni1091   1.903       .  S
O1069     Ni1085   1.920       .  S
O1069      H1092   0.965       .  S
C1070      O1087   1.253       .  A
C1070      O1079   1.294       .  A
C1070      C1452   1.475       .  S
O1071     Ni1090   1.984       .  S
O1071      C1077   1.292       .  A
O1072     Ni1090   1.987       .  S
O1072      C1074   1.283       .  A
Ni1073     O1076   1.939       .  S
Ni1073     O1078   1.914       .  S
C1074      O1084   1.276       .  A
O1075     Ni1091   1.850       .  S
O1075      C1081   1.246       .  A
O1076      C1081   1.272       .  A
C1077      C1200   1.471       .  S
O1078      C1080   1.267       .  A
O1079     Ni1090   1.988       .  S
C1080      O1086   1.299       .  A
H1082      O1083   0.967       .  S
O1083     Ni1091   1.867       .  S
O1083     Ni1085   1.857       .  S
O1083     Ni1090   1.915       .  S
O1084     Ni1085   1.997       .  S
Ni1085     O1089   1.787       .  S
Ni1085     O1087   1.880       .  S
O1086     Ni1091   2.020       .  S
C1088      O1089   1.228       .  A
C1088      C1467   1.410       .  S
O1093     Ni1099   2.000       .  S
O1093      C1114   1.300       .  A
O1094     Ni1117   1.806       .  S
O1094      C1103   1.225       .  A
O1095     Ni1099   1.885       .  S
O1095     Ni1117   1.865       .  S
O1095     Ni1111   1.892       .  S
O1095      H1118   0.967       .  S
C1096      O1113   1.275       .  A
C1096      O1105   1.274       .  A
C1096      C1148   1.423   1_455  S
O1097     Ni1116   1.896       .  S
O1097      C1103   1.270       .  A
O1098     Ni1116   1.928       .  S
O1098      C1100   1.271       .  A
Ni1099     O1102   1.980       .  S
Ni1099     O1104   2.041       .  S
C1100      O1110   1.272       .  A
C1100      C1207   1.496       .  S
O1101     Ni1117   1.923       .  S
O1101      C1107   1.275       .  A
O1102      C1107   1.298       .  A
C1103      C1738   1.372       .  S
O1104      C1106   1.299       .  A
O1105     Ni1116   1.884       .  S
C1106      O1112   1.247       .  A
C1106      C1132   1.542       .  S
C1107      C1776   1.501       .  S
H1108      O1109   0.964       .  S
O1109     Ni1117   1.879       .  S
O1109     Ni1111   1.860       .  S
O1109     Ni1116   1.878       .  S
O1110     Ni1111   1.947       .  S
Ni1111     O1115   1.842       .  S
Ni1111     O1113   1.910       .  S
O1112     Ni1117   1.904       .  S
C1114      O1115   1.252       .  A
O1119     Ni1125   1.998   1_655  S
O1119      C1140   1.300       .  A
O1120     Ni1143   1.805       .  S
O1120      C1129   1.225       .  A
O1121     Ni1125   1.884       .  S
O1121     Ni1143   1.865       .  S
O1121     Ni1137   1.893       .  S
O1121      H1144   0.967       .  S
C1122      O1139   1.276       .  A
C1122      O1131   1.274   1_655  A
C1122      C1226   1.423       .  S
O1123     Ni1142   1.896       .  S
O1123      C1129   1.270       .  A
O1124     Ni1142   1.928       .  S
O1124      C1126   1.271       .  A
Ni1125     O1128   1.980       .  S
Ni1125     O1130   2.041       .  S
C1126      O1136   1.272       .  A
C1126      C1181   1.496   1_455  S
O1127     Ni1143   1.923       .  S
O1127      C1133   1.275       .  A
O1128      C1133   1.298       .  A
C1129      C1764   1.372       .  S
O1130      C1132   1.298       .  A
O1131     Ni1142   1.884       .  S
C1132      O1138   1.247       .  A
C1133      C1828   1.501       .  S
H1134      O1135   0.964       .  S
O1135     Ni1143   1.878       .  S
O1135     Ni1137   1.860       .  S
O1135     Ni1142   1.877       .  S
O1136     Ni1137   1.947       .  S
Ni1137     O1141   1.842   1_455  S
Ni1137     O1139   1.911   1_455  S
O1138     Ni1143   1.905       .  S
C1140      O1141   1.252       .  A
C1140      C1278   1.474       .  S
O1145     Ni1151   1.984       .  S
O1145      C1166   1.292       .  A
O1146     Ni1169   1.786       .  S
O1146      C1155   1.228       .  A
O1147     Ni1151   1.914       .  S
O1147     Ni1169   1.856       .  S
O1147     Ni1163   1.866       .  S
O1147      H1170   0.967       .  S
C1148      O1165   1.246       .  A
C1148      O1157   1.272       .  A
O1149     Ni1168   1.918       .  S
O1149      C1155   1.275       .  A
O1150     Ni1168   1.914       .  S
O1150      C1152   1.268       .  A
Ni1151     O1154   1.987       .  S
Ni1151     O1156   1.988       .  S
C1152      O1162   1.299       .  A
C1152      C1230   1.514       .  S
O1153     Ni1169   1.881       .  S
O1153      C1159   1.253       .  A
O1154      C1159   1.294       .  A
C1155      C1296   1.409       .  S
O1156      C1158   1.283       .  A
O1157     Ni1168   1.937       .  S
C1158      O1164   1.275       .  A
C1158      C1192   1.559       .  S
C1159      C1389   1.476       .  S
H1160      O1161   0.965       .  S
O1161     Ni1169   1.920       .  S
O1161     Ni1163   1.903       .  S
O1161     Ni1168   1.900       .  S
O1162     Ni1163   2.020       .  S
Ni1163     O1167   1.860       .  S
Ni1163     O1165   1.851       .  S
O1164     Ni1169   1.996       .  S
C1166      O1167   1.262       .  A
O1171     Ni1177   1.946       .  S
O1171      C1192   1.287       .  A
O1172     Ni1195   1.900   1_455  S
O1172      C1181   1.259   1_455  A
O1173     Ni1195   1.886       .  S
O1173     Ni1189   1.882       .  S
O1173      H1196   0.967       .  S
C1174      O1191   1.291       .  A
C1174      O1183   1.278       .  A
C1174      C1311   1.471       .  S
O1175     Ni1194   1.972       .  S
O1175      C1181   1.275       .  A
O1176     Ni1194   1.896       .  S
O1176      C1178   1.267       .  A
Ni1177     O1182   1.968   1_655  S
C1178      O1188   1.269       .  A
C1178      C1262   1.451       .  S
O1179     Ni1195   1.838   1_455  S
O1179      C1185   1.264       .  A
O1180      C1185   1.267       .  A
O1183     Ni1194   1.921       .  S
C1184      O1190   1.265       .  A
C1185      C1211   1.388       .  S
H1186      O1187   0.966       .  S
O1187     Ni1195   1.892       .  S
O1187     Ni1189   1.947       .  S
O1187     Ni1194   1.929       .  S
O1188     Ni1189   1.907       .  S
Ni1189     O1191   1.938       .  S
O1190     Ni1195   1.910   1_455  S
C1192      O1193   1.293       .  A
O1197     Ni1203   1.947       .  S
O1197      C1218   1.287   1_455  A
O1198      C1207   1.259       .  A
O1199     Ni1203   1.911       .  S
O1199     Ni1221   1.887       .  S
O1199     Ni1215   1.882       .  S
O1199      H1222   0.967       .  S
C1200      O1217   1.291       .  A
C1200      O1209   1.278       .  A
O1201      C1207   1.275       .  A
O1202     Ni1220   1.896       .  S
O1202      C1204   1.267       .  A
Ni1203     O1206   1.889       .  S
Ni1203     O1208   1.968       .  S
C1204      O1214   1.269       .  A
O1205     Ni1221   1.838       .  S
O1205      C1211   1.264       .  A
O1206      C1211   1.267       .  A
O1208      C1210   1.293       .  A
O1209     Ni1220   1.922       .  S
C1210      O1216   1.265       .  A
C1210      C1746   1.501       .  S
H1212      O1213   0.966       .  S
O1213     Ni1221   1.892       .  S
O1213     Ni1215   1.947       .  S
O1213     Ni1220   1.929       .  S
O1214     Ni1215   1.908       .  S
Ni1215     O1219   1.995       .  S
Ni1215     O1217   1.938       .  S
O1216     Ni1221   1.910       .  S
C1218      O1219   1.293   1_655  A
C1218      C1236   1.559       .  S
O1223     Ni1229   1.983       .  S
O1223      C1244   1.292       .  A
O1224     Ni1247   1.787       .  S
O1224      C1233   1.228       .  A
O1225     Ni1229   1.915       .  S
O1225     Ni1247   1.858       .  S
O1225     Ni1241   1.867       .  S
O1225      H1248   0.967       .  S
C1226      O1243   1.246       .  A
C1226      O1235   1.272       .  A
O1227     Ni1246   1.918       .  S
O1227      C1233   1.275       .  A
O1228     Ni1246   1.914       .  S
O1228      C1230   1.267       .  A
Ni1229     O1232   1.988       .  S
Ni1229     O1234   1.988       .  S
C1230      O1240   1.299       .  A
O1231     Ni1247   1.880       .  S
O1231      C1237   1.253       .  A
O1232      C1237   1.294       .  A
O1234      C1236   1.283       .  A
O1235     Ni1246   1.939       .  S
C1236      O1242   1.276       .  A
H1238      O1239   0.965       .  S
O1239     Ni1247   1.919       .  S
O1239     Ni1241   1.904       .  S
O1239     Ni1246   1.900       .  S
O1240     Ni1241   2.020       .  S
Ni1241     O1245   1.861       .  S
Ni1241     O1243   1.849       .  S
O1242     Ni1247   1.997       .  S
C1244      O1245   1.262       .  A
C1244      C1263   1.471       .  S
O1249     Ni1255   1.973       .  S
O1249      C1270   1.275       .  A
O1250     Ni1273   1.994       .  S
O1250      C1259   1.293       .  A
O1251     Ni1255   1.928       .  S
O1251     Ni1273   1.947       .  S
O1251     Ni1267   1.893       .  S
O1251      H1274   0.966       .  S
C1252      O1269   1.264       .  A
C1252      O1261   1.267       .  A
C1252      C1330   1.389       .  S
O1253     Ni1272   1.948       .  S
O1253      C1259   1.288       .  A
O1254     Ni1272   1.968       .  S
O1254      C1256   1.293       .  A
Ni1255     O1258   1.922       .  S
Ni1255     O1260   1.895       .  S
C1256      O1266   1.265       .  A
C1256      C1419   1.501       .  S
O1257     Ni1273   1.938       .  S
O1257      C1263   1.291       .  A
O1258      C1263   1.278       .  A
C1259      C1282   1.559       .  S
O1260      C1262   1.267       .  A
O1261     Ni1272   1.890       .  S
C1262      O1268   1.269       .  A
H1264      O1265   0.967       .  S
O1265     Ni1273   1.882       .  S
O1265     Ni1267   1.887       .  S
O1265     Ni1272   1.911       .  S
O1266     Ni1267   1.911       .  S
Ni1267     O1271   1.901       .  S
Ni1267     O1269   1.839       .  S
O1268     Ni1273   1.908       .  S
C1270      O1271   1.259       .  A
C1270      C1392   1.497       .  S
O1275     Ni1281   1.919       .  S
O1275      C1296   1.275       .  A
O1276     Ni1299   1.861       .  S
O1276      C1285   1.261       .  A
O1277     Ni1281   1.901       .  S
O1277     Ni1299   1.904       .  S
O1277     Ni1293   1.917       .  S
O1277      H1300   0.965       .  S
C1278      O1295   1.252       .  A
C1278      O1287   1.294       .  A
O1279     Ni1298   1.981       .  S
O1279      C1285   1.291       .  A
O1280     Ni1298   1.987       .  S
O1280      C1282   1.282       .  A
Ni1281     O1284   1.941       .  S
Ni1281     O1286   1.913       .  S
C1282      O1292   1.276       .  A
O1283     Ni1299   1.846       .  S
O1283      C1289   1.246       .  A
O1284      C1289   1.274       .  A
C1285      C1668   1.470       .  S
O1286      C1288   1.266       .  A
O1287     Ni1298   1.987       .  S
C1288      O1294   1.298       .  A
C1288      C1314   1.514       .  S
C1289      C1367   1.423       .  S
H1290      O1291   0.967       .  S
O1291     Ni1299   1.867       .  S
O1291     Ni1293   1.859       .  S
O1291     Ni1298   1.917       .  S
O1292     Ni1293   1.997       .  S
Ni1293     O1297   1.786       .  S
Ni1293     O1295   1.878       .  S
O1294     Ni1299   2.018       .  S
C1296      O1297   1.228       .  A
O1301     Ni1307   1.918       .  S
O1301      C1322   1.275       .  A
O1302     Ni1325   1.860       .  S
O1303     Ni1307   1.901       .  S
O1303     Ni1325   1.903       .  S
O1303     Ni1319   1.920       .  S
O1303      H1326   0.965       .  S
C1304      O1321   1.253       .  A
C1304      C1634   1.475       .  S
O1305     Ni1324   1.984       .  S
O1305      C1311   1.292       .  A
O1306     Ni1324   1.987       .  S
O1306      C1308   1.283       .  A
Ni1307     O1310   1.939       .  S
Ni1307     O1312   1.913       .  S
C1308      O1318   1.276       .  A
C1308      C1337   1.558       .  S
O1309     Ni1325   1.849       .  S
O1309      C1315   1.246       .  A
O1310      C1315   1.272       .  A
O1312      C1314   1.267       .  A
O1313     Ni1324   1.987       .  S
C1314      O1320   1.299       .  A
C1315      C1393   1.423       .  S
H1316      O1317   0.967       .  S
O1317     Ni1325   1.867       .  S
O1317     Ni1319   1.857       .  S
Ni1319     O1323   1.788       .  S
Ni1319     O1321   1.880       .  S
O1320     Ni1325   2.019       .  S
C1322      O1323   1.229       .  A
C1322      C1701   1.410       .  S
O1327     Ni1333   1.972       .  S
O1327      C1348   1.275       .  A
O1328     Ni1351   1.994       .  S
O1328      C1337   1.293       .  A
O1329     Ni1333   1.928       .  S
O1329     Ni1351   1.947       .  S
O1329     Ni1345   1.893       .  S
O1329      H1352   0.966       .  S
C1330      O1347   1.264       .  A
C1330      O1339   1.267       .  A
O1331     Ni1350   1.947       .  S
O1331      C1337   1.287       .  A
O1332     Ni1350   1.968       .  S
O1332      C1334   1.293       .  A
Ni1333     O1336   1.921       .  S
Ni1333     O1338   1.895       .  S
C1334      O1344   1.265       .  A
C1334      C1445   1.501       .  S
O1335     Ni1351   1.937       .  S
O1335      C1341   1.290       .  A
O1336      C1341   1.278       .  A
O1338      C1340   1.267       .  A
O1339     Ni1350   1.889       .  S
C1340      O1346   1.270       .  A
C1340      C1672   1.451       .  S
C1341      C1582   1.470       .  S
H1342      O1343   0.967       .  S
O1343     Ni1351   1.882       .  S
O1343     Ni1345   1.886       .  S
O1343     Ni1350   1.911       .  S
O1344     Ni1345   1.910       .  S
Ni1345     O1349   1.901       .  S
Ni1345     O1347   1.839       .  S
O1346     Ni1351   1.908       .  S
C1348      O1349   1.259       .  A
C1348      C1366   1.497       .  S
O1353     Ni1359   1.894       .  S
O1353      C1374   1.270       .  A
O1354     Ni1377   1.843       .  S
O1354      C1363   1.253       .  A
O1355     Ni1359   1.876       .  S
O1355     Ni1377   1.859       .  S
O1355     Ni1371   1.878       .  S
O1355      H1378   0.964       .  S
C1356      O1373   1.274       .  A
C1356      O1365   1.298       .  A
C1356      C1496   1.501       .  S
O1357     Ni1376   1.998       .  S
O1357      C1363   1.300       .  A
O1358     Ni1376   2.041       .  S
O1358      C1360   1.298       .  A
Ni1359     O1362   1.883       .  S
Ni1359     O1364   1.927       .  S
C1360      O1370   1.248       .  A
C1360      C1386   1.544       .  S
O1361     Ni1377   1.912       .  S
O1361      C1367   1.276       .  A
O1362      C1367   1.273       .  A
C1363      C1705   1.475       .  S
O1364      C1366   1.270       .  A
O1365     Ni1376   1.981       .  S
C1366      O1372   1.272       .  A
H1368      O1369   0.967       .  S
O1369     Ni1377   1.894       .  S
O1369     Ni1371   1.865       .  S
O1369     Ni1376   1.885       .  S
O1370     Ni1371   1.906       .  S
Ni1371     O1375   1.804       .  S
Ni1371     O1373   1.923       .  S
O1372     Ni1377   1.950       .  S
C1374      O1375   1.226       .  A
C1374      C1415   1.370       .  S
O1379     Ni1385   1.894       .  S
O1380     Ni1403   1.842       .  S
O1380      C1389   1.252       .  A
O1381     Ni1403   1.860       .  S
O1381     Ni1397   1.879       .  S
O1381      H1404   0.964       .  S
C1382      O1399   1.275       .  A
C1382      O1391   1.298       .  A
C1382      C1548   1.501       .  S
O1383     Ni1402   2.000       .  S
O1383      C1389   1.300       .  A
O1384     Ni1402   2.042       .  S
O1384      C1386   1.299       .  A
Ni1385     O1390   1.928       .  S
C1386      O1396   1.247       .  A
O1387     Ni1403   1.912       .  S
O1387      C1393   1.276       .  A
O1388      C1393   1.273       .  A
O1390      C1392   1.270       .  A
O1391     Ni1402   1.981       .  S
H1394      O1395   0.967       .  S
O1395     Ni1403   1.894       .  S
O1395     Ni1397   1.864       .  S
O1395     Ni1402   1.885       .  S
O1396     Ni1397   1.905       .  S
Ni1397     O1401   1.805       .  S
Ni1397     O1399   1.923       .  S
O1398     Ni1403   1.949       .  S
C1400      O1401   1.226       .  A
O1405     Ni1411   2.000       .  S
O1405      C1426   1.300       .  A
O1406     Ni1429   1.805       .  S
O1406      C1415   1.225       .  A
O1407     Ni1411   1.885       .  S
O1407     Ni1429   1.865       .  S
O1407     Ni1423   1.894       .  S
O1407      H1430   0.967       .  S
C1408      O1425   1.276       .  A
C1408      O1417   1.273       .  A
C1408      C1460   1.423       .  S
O1409     Ni1428   1.894       .  S
O1409      C1415   1.269       .  A
O1410     Ni1428   1.928       .  S
O1410      C1412   1.270       .  A
Ni1411     O1414   1.981       .  S
Ni1411     O1416   2.042       .  S
C1412      O1422   1.272       .  A
C1412      C1545   1.497       .  S
O1413     Ni1429   1.923       .  S
O1413      C1419   1.275       .  A
O1414      C1419   1.298       .  A
O1416      C1418   1.299       .  A
O1417     Ni1428   1.882       .  S
C1418      O1424   1.247       .  A
C1418      C1444   1.544       .  S
H1420      O1421   0.964       .  S
O1421     Ni1429   1.879       .  S
O1421     Ni1423   1.860       .  S
O1421     Ni1428   1.877       .  S
O1422     Ni1423   1.949       .  S
Ni1423     O1427   1.843       .  S
Ni1423     O1425   1.912       .  S
O1424     Ni1429   1.904       .  S
C1426      O1427   1.253       .  A
C1426      C1850   1.476       .  S
O1431     Ni1437   1.998       .  S
O1431      C1452   1.300       .  A
O1432     Ni1455   1.804       .  S
O1432      C1441   1.226       .  A
O1433     Ni1437   1.885       .  S
O1433     Ni1455   1.865       .  S
O1433     Ni1449   1.894       .  S
O1433      H1456   0.967       .  S
C1434      O1451   1.276       .  A
C1434      O1443   1.273       .  A
C1434      C1512   1.423       .  S
O1436      C1438   1.270       .  A
Ni1437     O1440   1.981       .  S
Ni1437     O1442   2.041       .  S
C1438      C1493   1.497       .  S
O1439     Ni1455   1.923       .  S
O1439      C1445   1.274       .  A
O1440      C1445   1.298       .  A
O1442      C1444   1.298       .  A
O1443     Ni1454   1.883       .  S
C1444      O1450   1.248       .  A
H1446      O1447   0.963       .  S
O1447     Ni1455   1.878       .  S
O1447     Ni1449   1.860       .  S
O1447     Ni1454   1.876       .  S
O1448     Ni1449   1.949       .  S
Ni1449     O1453   1.844       .  S
Ni1449     O1451   1.912       .  S
O1450     Ni1455   1.906       .  S
C1452      O1453   1.253       .  A
O1457     Ni1463   1.983       .  S
O1457      C1478   1.292       .  A
O1458     Ni1481   1.787       .  S
O1458      C1467   1.228       .  A
O1459     Ni1463   1.915       .  S
O1459     Ni1481   1.857       .  S
O1459     Ni1475   1.867       .  S
O1459      H1482   0.967       .  S
C1460      O1477   1.246       .  A
C1460      O1469   1.272       .  A
O1461     Ni1480   1.918       .  S
O1461      C1467   1.275       .  A
O1462     Ni1480   1.914       .  S
O1462      C1464   1.267       .  A
Ni1463     O1466   1.987       .  S
Ni1463     O1468   1.987       .  S
C1464      O1474   1.299       .  A
C1464      C1516   1.514       .  S
O1465     Ni1481   1.880       .  S
O1465      C1471   1.253       .  A
O1466      C1471   1.294       .  A
O1468      C1470   1.283       .  A
O1469     Ni1480   1.939       .  S
C1470      O1476   1.276       .  A
C1470      C1504   1.559       .  S
H1472      O1473   0.965       .  S
O1473     Ni1481   1.920       .  S
O1473     Ni1475   1.903       .  S
O1473     Ni1480   1.901       .  S
O1474     Ni1475   2.019       .  S
Ni1475     O1479   1.860       .  S
Ni1475     O1477   1.849       .  S
O1476     Ni1481   1.997       .  S
C1478      O1479   1.261       .  A
C1478      C1835   1.471       .  S
O1483     Ni1489   1.947       .  S
O1483      C1504   1.287       .  A
O1484     Ni1507   1.901       .  S
O1484      C1493   1.259       .  A
O1485     Ni1489   1.911       .  S
O1485     Ni1507   1.886       .  S
O1485     Ni1501   1.882       .  S
O1485      H1508   0.967       .  S
C1486      O1503   1.291       .  A
C1486      O1495   1.278       .  A
O1487     Ni1506   1.972       .  S
O1487      C1493   1.275       .  A
O1488     Ni1506   1.895       .  S
O1488      C1490   1.267       .  A
Ni1489     O1492   1.889       .  S
Ni1489     O1494   1.968       .  S
C1490      O1500   1.269       .  A
O1491     Ni1507   1.839       .  S
O1491      C1497   1.264       .  A
O1492      C1497   1.267       .  A
O1494      C1496   1.293       .  A
O1495     Ni1506   1.921       .  S
C1496      O1502   1.265       .  A
C1497      C1549   1.389       .  S
H1498      O1499   0.966       .  S
O1499     Ni1507   1.893       .  S
O1499     Ni1501   1.947       .  S
O1499     Ni1506   1.929       .  S
O1500     Ni1501   1.908       .  S
Ni1501     O1505   1.995       .  S
Ni1501     O1503   1.938       .  S
O1502     Ni1507   1.910       .  S
C1504      O1505   1.293       .  A
O1509     Ni1515   1.982       .  S
O1509      C1530   1.291       .  A
O1510     Ni1533   1.787       .  S
O1510      C1519   1.228       .  A
O1511     Ni1533   1.859       .  S
O1511     Ni1527   1.867       .  S
O1511      H1534   0.967       .  S
C1512      O1529   1.246       .  A
C1512      O1521   1.273       .  A
O1513     Ni1532   1.919       .  S
O1513      C1519   1.275       .  A
O1514     Ni1532   1.913       .  S
O1514      C1516   1.267       .  A
Ni1515     O1518   1.987       .  S
Ni1515     O1520   1.987       .  S
C1516      O1526   1.298       .  A
O1517     Ni1533   1.879       .  S
O1517      C1523   1.252       .  A
C1519      C1868   1.410       .  S
O1520      C1522   1.282       .  A
O1521     Ni1532   1.941       .  S
C1522      O1528   1.276   1_556  A
C1522      C1556   1.559       .  S
C1523      C1727   1.475       .  S
H1524      O1525   0.965       .  S
O1525     Ni1533   1.918       .  S
O1525     Ni1527   1.904       .  S
O1525     Ni1532   1.901       .  S
O1526     Ni1527   2.018       .  S
Ni1527     O1531   1.861       .  S
Ni1527     O1529   1.847       .  S
O1535     Ni1541   1.948       .  S
O1535      C1556   1.288       .  A
O1536     Ni1559   1.901       .  S
O1536      C1545   1.259       .  A
O1537     Ni1541   1.911       .  S
O1537     Ni1559   1.887       .  S
O1537     Ni1553   1.882       .  S
O1537      H1560   0.967       .  S
C1538      O1555   1.291       .  A
C1538      O1547   1.278       .  A
C1538      C1805   1.471       .  S
O1539     Ni1558   1.972       .  S
O1539      C1545   1.275       .  A
O1540     Ni1558   1.895       .  S
O1540      C1542   1.267       .  A
Ni1541     O1544   1.889       .  S
Ni1541     O1546   1.969       .  S
C1542      O1552   1.269       .  A
C1542      C1834   1.451       .  S
O1543     Ni1559   1.839       .  S
O1543      C1549   1.264       .  A
O1544      C1549   1.267       .  A
O1546      C1548   1.293       .  A
O1547     Ni1558   1.922       .  S
C1548      O1554   1.265       .  A
H1550      O1551   0.966       .  S
O1551     Ni1559   1.893       .  S
O1551     Ni1553   1.947       .  S
O1551     Ni1558   1.928       .  S
O1552     Ni1553   1.908       .  S
Ni1553     O1557   1.994       .  S
Ni1553     O1555   1.937       .  S
O1554     Ni1559   1.911       .  S
C1556      O1557   1.293       .  A
O1561     Ni1567   1.981       .  S
O1561      C1582   1.291       .  A
O1562     Ni1585   1.786       .  S
O1562      C1571   1.227       .  A
O1563     Ni1567   1.917       .  S
O1563     Ni1585   1.859       .  S
O1563     Ni1579   1.867       .  S
O1563      H1586   0.967       .  S
C1564      O1581   1.246       .  A
C1564      O1573   1.274       .  A
C1564      C1616   1.423       .  S
O1566      C1568   1.266       .  A
Ni1567     O1570   1.987       .  S
Ni1567     O1572   1.987       .  S
C1568      C1698   1.514       .  S
O1569     Ni1585   1.878       .  S
O1569      C1575   1.252       .  A
O1570      C1575   1.294       .  A
O1572      C1574   1.282       .  A
O1573     Ni1584   1.941       .  S
C1574      O1580   1.275       .  A
C1574      C1608   1.559   1_565  S
C1575      C1753   1.474       .  S
H1576      O1577   0.965       .  S
O1577     Ni1585   1.917       .  S
O1577     Ni1579   1.904       .  S
O1577     Ni1584   1.901       .  S
O1578     Ni1579   2.018       .  S
Ni1579     O1583   1.861       .  S
Ni1579     O1581   1.847       .  S
O1580     Ni1585   1.997       .  S
C1582      O1583   1.261       .  A
O1587     Ni1593   1.947       .  S
O1587      C1608   1.288       .  A
O1588     Ni1611   1.901       .  S
O1588      C1597   1.259       .  A
O1589     Ni1593   1.911       .  S
O1589     Ni1611   1.887       .  S
O1589     Ni1605   1.882       .  S
O1589      H1612   0.967       .  S
C1590      O1607   1.291       .  A
C1590      O1599   1.278       .  A
C1590      C1857   1.472       .  S
O1591     Ni1610   1.973       .  S
O1591      C1597   1.275       .  A
O1592     Ni1610   1.896       .  S
O1592      C1594   1.267       .  A
Ni1593     O1596   1.889       .  S
Ni1593     O1598   1.968       .  S
C1594      O1604   1.269       .  A
C1594      C1782   1.451   1_545  S
O1595     Ni1611   1.838       .  S
O1595      C1601   1.264       .  A
O1596      C1601   1.267       .  A
C1597      C1646   1.497       .  S
O1598      C1600   1.293       .  A
O1599     Ni1610   1.923       .  S
C1600      O1606   1.265       .  A
C1601      C1679   1.389       .  S
H1602      O1603   0.966       .  S
O1603     Ni1611   1.892       .  S
O1603     Ni1605   1.947       .  S
O1603     Ni1610   1.929       .  S
O1604     Ni1605   1.907       .  S
Ni1605     O1609   1.994       .  S
Ni1605     O1607   1.938       .  S
O1606     Ni1611   1.911       .  S
C1608      O1609   1.293       .  A
O1613     Ni1619   1.998       .  S
O1613      C1634   1.300   1_545  A
O1614     Ni1637   1.804       .  S
O1614      C1623   1.226       .  A
O1615     Ni1637   1.865       .  S
O1615     Ni1631   1.894       .  S
O1615      H1638   0.967       .  S
C1616      O1633   1.276       .  A
C1616      O1625   1.274   1_565  A
O1617     Ni1636   1.895       .  S
O1617      C1623   1.270       .  A
O1618     Ni1636   1.927       .  S
O1618      C1620   1.270       .  A
Ni1619     O1622   1.981       .  S
Ni1619     O1624   2.041       .  S
C1620      O1630   1.272       .  A
C1620      C1675   1.497   1_545  S
O1621     Ni1637   1.923       .  S
O1621      C1627   1.274       .  A
O1624      C1626   1.298       .  A
O1625     Ni1636   1.883       .  S
C1626      O1632   1.248       .  A
C1626      C1652   1.543       .  S
H1628      O1629   0.964       .  S
O1629     Ni1637   1.878       .  S
O1629     Ni1631   1.859       .  S
O1629     Ni1636   1.876       .  S
O1630     Ni1631   1.949       .  S
Ni1631     O1635   1.843   1_545  S
Ni1631     O1633   1.912   1_545  S
O1639     Ni1645   2.000       .  S
O1639      C1660   1.300       .  A
O1640     Ni1663   1.806       .  S
O1640      C1649   1.225       .  A
O1641     Ni1645   1.885       .  S
O1641     Ni1663   1.865       .  S
O1641     Ni1657   1.893       .  S
O1641      H1664   0.967       .  S
C1642      O1659   1.276       .  A
C1642      O1651   1.273       .  A
C1642      C1694   1.423   1_545  S
O1643     Ni1662   1.895       .  S
O1643      C1649   1.270       .  A
O1644     Ni1662   1.928       .  S
O1644      C1646   1.271       .  A
Ni1645     O1648   1.981       .  S
Ni1645     O1650   2.042       .  S
C1646      O1656   1.272       .  A
O1647     Ni1663   1.923       .  S
O1647      C1653   1.275       .  A
O1648      C1653   1.298       .  A
O1650      C1652   1.299       .  A
O1651     Ni1662   1.883       .  S
C1652      O1658   1.247       .  A
H1654      O1655   0.964       .  S
O1655     Ni1663   1.879       .  S
O1655     Ni1657   1.860       .  S
O1655     Ni1662   1.878       .  S
O1656     Ni1657   1.948       .  S
Ni1657     O1661   1.843       .  S
Ni1657     O1659   1.911       .  S
O1658     Ni1663   1.904       .  S
C1660      O1661   1.252       .  A
C1660      C1798   1.476       .  S
O1665     Ni1671   1.947       .  S
O1665      C1686   1.288       .  A
O1666     Ni1689   1.901   1_545  S
O1666      C1675   1.259   1_545  A
O1667     Ni1671   1.911       .  S
O1667     Ni1689   1.886       .  S
O1667     Ni1683   1.882       .  S
O1667      H1690   0.967       .  S
C1668      O1685   1.291       .  A
C1668      O1677   1.278       .  A
O1669     Ni1688   1.972       .  S
O1669      C1675   1.275       .  A
O1670     Ni1688   1.895       .  S
O1670      C1672   1.267       .  A
Ni1671     O1674   1.889   1_565  S
Ni1671     O1676   1.969   1_565  S
C1672      O1682   1.270       .  A
O1673     Ni1689   1.838   1_545  S
O1673      C1679   1.264       .  A
O1674      C1679   1.267       .  A
O1676      C1678   1.293       .  A
O1677     Ni1688   1.921       .  S
C1678      O1684   1.265       .  A
H1680      O1681   0.966       .  S
O1681     Ni1689   1.893       .  S
O1681     Ni1683   1.947       .  S
O1681     Ni1688   1.929       .  S
O1682     Ni1683   1.908       .  S
Ni1683     O1687   1.994       .  S
Ni1683     O1685   1.938       .  S
O1684     Ni1689   1.910   1_545  S
C1686      O1687   1.293       .  A
C1686      C1704   1.559       .  S
O1691     Ni1697   1.984       .  S
O1691      C1712   1.292       .  A
O1692     Ni1715   1.788       .  S
O1692      C1701   1.229       .  A
O1693     Ni1697   1.914       .  S
O1693     Ni1715   1.857       .  S
O1693     Ni1709   1.867       .  S
O1693      H1716   0.967       .  S
C1694      O1711   1.246       .  A
C1694      O1703   1.272       .  A
O1695     Ni1714   1.918       .  S
O1695      C1701   1.275       .  A
O1696     Ni1714   1.914       .  S
O1696      C1698   1.268       .  A
Ni1697     O1700   1.988       .  S
Ni1697     O1702   1.987       .  S
C1698      O1708   1.299       .  A
O1699     Ni1715   1.880       .  S
O1699      C1705   1.253       .  A
O1700      C1705   1.294       .  A
O1702      C1704   1.283       .  A
O1703     Ni1714   1.938       .  S
C1704      O1710   1.276       .  A
H1706      O1707   0.965       .  S
O1707     Ni1715   1.921       .  S
O1707     Ni1709   1.903       .  S
O1707     Ni1714   1.900       .  S
O1708     Ni1709   2.019       .  S
Ni1709     O1713   1.861       .  S
Ni1709     O1711   1.850       .  S
O1710     Ni1715   1.997       .  S
C1712      O1713   1.262       .  A
C1712      C1783   1.472       .  S
O1717     Ni1723   1.896       .  S
O1717      C1738   1.270       .  A
O1718     Ni1741   1.843   1_545  S
O1719     Ni1723   1.878       .  S
O1719     Ni1741   1.860       .  S
O1719     Ni1735   1.879       .  S
O1719      H1742   0.964       .  S
C1720      O1737   1.275       .  A
O1721     Ni1740   1.999   1_545  S
O1721      C1727   1.300       .  A
O1722     Ni1740   2.041       .  S
O1722      C1724   1.298       .  A
Ni1723     O1726   1.884       .  S
Ni1723     O1728   1.928       .  S
C1724      O1734   1.247       .  A
C1724      C1750   1.542       .  S
O1725     Ni1741   1.911   1_545  S
O1725      C1731   1.276       .  A
O1726      C1731   1.274   1_565  A
O1728      C1730   1.271   1_565  A
O1729     Ni1740   1.980       .  S
C1730      O1736   1.272       .  A
C1730      C1842   1.496       .  S
C1731      C1809   1.423       .  S
H1732      O1733   0.967       .  S
O1733     Ni1741   1.893       .  S
O1733     Ni1735   1.865       .  S
Ni1735     O1739   1.806       .  S
Ni1735     O1737   1.923       .  S
O1736     Ni1741   1.947   1_545  S
C1738      O1739   1.225       .  A
O1743     Ni1749   1.895       .  S
O1743      C1764   1.270       .  A
O1744     Ni1767   1.841       .  S
O1744      C1753   1.252       .  A
O1745     Ni1749   1.878       .  S
O1745     Ni1767   1.860       .  S
O1745     Ni1761   1.879       .  S
O1745      H1768   0.964       .  S
C1746      O1763   1.275       .  A
C1746      O1755   1.298       .  A
O1747     Ni1766   1.999       .  S
O1747      C1753   1.300       .  A
O1748     Ni1766   2.041       .  S
O1748      C1750   1.298       .  A
Ni1749     O1752   1.884       .  S
Ni1749     O1754   1.929       .  S
C1750      O1760   1.247       .  A
O1751     Ni1767   1.911       .  S
O1751      C1757   1.275       .  A
O1752      C1757   1.274       .  A
O1754      C1756   1.271       .  A
O1755     Ni1766   1.980       .  S
C1756      O1762   1.271       .  A
C1756      C1790   1.496       .  S
C1757      C1861   1.423   1_565  S
H1758      O1759   0.967       .  S
O1759     Ni1767   1.893       .  S
O1759     Ni1761   1.864       .  S
O1759     Ni1766   1.884       .  S
O1760     Ni1761   1.903       .  S
Ni1761     O1765   1.806       .  S
Ni1761     O1763   1.924       .  S
O1762     Ni1767   1.947       .  S
C1764      O1765   1.225       .  A
O1769     Ni1775   1.972       .  S
O1769      C1790   1.275       .  A
O1770     Ni1793   1.994       .  S
O1770      C1779   1.293   1_565  A
O1771     Ni1775   1.929       .  S
O1771     Ni1793   1.947       .  S
O1771     Ni1787   1.892       .  S
O1771      H1794   0.966       .  S
C1772      O1789   1.264       .  A
C1772      O1781   1.267       .  A
C1772      C1824   1.389       .  S
O1773     Ni1792   1.947       .  S
O1773      C1779   1.287   1_565  A
O1774     Ni1792   1.968       .  S
O1774      C1776   1.293       .  A
Ni1775     O1778   1.922       .  S
Ni1775     O1780   1.896       .  S
C1776      O1786   1.265       .  A
O1777     Ni1793   1.939       .  S
O1777      C1783   1.291       .  A
O1778      C1783   1.278       .  A
C1779      C1802   1.559       .  S
O1780      C1782   1.267       .  A
O1781     Ni1792   1.889       .  S
C1782      O1788   1.269       .  A
H1784      O1785   0.967   1_545  S
O1785     Ni1793   1.882       .  S
O1785     Ni1787   1.886       .  S
O1785     Ni1792   1.911       .  S
O1786     Ni1787   1.910       .  S
Ni1787     O1791   1.900       .  S
Ni1787     O1789   1.838       .  S
O1788     Ni1793   1.907       .  S
C1790      O1791   1.258       .  A
O1795     Ni1801   1.918       .  S
O1796     Ni1819   1.860       .  S
O1796      C1805   1.262       .  A
O1797     Ni1819   1.903       .  S
O1797     Ni1813   1.919       .  S
O1797      H1820   0.965       .  S
C1798      O1815   1.253       .  A
C1798      O1807   1.294       .  A
O1799     Ni1818   1.983       .  S
O1799      C1805   1.292       .  A
O1800     Ni1818   1.988       .  S
O1800      C1802   1.283       .  A
Ni1801     O1806   1.914       .  S
C1802      O1812   1.275       .  A
O1803     Ni1819   1.851       .  S
O1803      C1809   1.246       .  A
O1804      C1809   1.272   1_554  A
O1806      C1808   1.268       .  A
O1807     Ni1818   1.988       .  S
C1808      C1860   1.515       .  S
H1810      O1811   0.967       .  S
O1811     Ni1819   1.867       .  S
O1811     Ni1813   1.857       .  S
O1811     Ni1818   1.915       .  S
O1812     Ni1813   1.996       .  S
Ni1813     O1817   1.785       .  S
Ni1813     O1815   1.881       .  S
O1814     Ni1819   2.020       .  S
C1816      O1817   1.228       .  A
O1821     Ni1827   1.972       .  S
O1821      C1842   1.275       .  A
O1822     Ni1845   1.995       .  S
O1822      C1831   1.293       .  A
O1823     Ni1827   1.929       .  S
O1823     Ni1845   1.947       .  S
O1823     Ni1839   1.892       .  S
O1823      H1846   0.966       .  S
C1824      O1841   1.264   1_565  A
C1824      O1833   1.267       .  A
O1825     Ni1844   1.946       .  S
O1825      C1831   1.287       .  A
O1826     Ni1844   1.968   1_565  S
O1826      C1828   1.293       .  A
Ni1827     O1830   1.921       .  S
Ni1827     O1832   1.896       .  S
C1828      O1838   1.265       .  A
O1829     Ni1845   1.938       .  S
O1829      C1835   1.291       .  A
O1830      C1835   1.278       .  A
C1831      C1854   1.559       .  S
O1832      C1834   1.267       .  A
O1833     Ni1844   1.889   1_565  S
C1834      O1840   1.269       .  A
H1836      O1837   0.967       .  S
O1837     Ni1845   1.882       .  S
O1837     Ni1839   1.886       .  S
O1837     Ni1844   1.911       .  S
O1838     Ni1839   1.909   1_565  S
Ni1839     O1843   1.900       .  S
Ni1839     O1841   1.838       .  S
O1840     Ni1845   1.908       .  S
C1842      O1843   1.259       .  A
O1847     Ni1853   1.918       .  S
O1847      C1868   1.275       .  A
O1848     Ni1871   1.861       .  S
O1848      C1857   1.262       .  A
O1849     Ni1853   1.900       .  S
O1849     Ni1871   1.903       .  S
O1849     Ni1865   1.921       .  S
O1849      H1872   0.965       .  S
C1850      O1867   1.253       .  A
C1850      O1859   1.294       .  A
O1851     Ni1870   1.984       .  S
O1851      C1857   1.292       .  A
O1852     Ni1870   1.988       .  S
O1852      C1854   1.283       .  A
Ni1853     O1856   1.938       .  S
Ni1853     O1858   1.914       .  S
C1854      O1864   1.275       .  A
O1855     Ni1871   1.852       .  S
O1855      C1861   1.246       .  A
O1856      C1861   1.272       .  A
O1858      C1860   1.268       .  A
O1859     Ni1870   1.988       .  S
C1860      O1866   1.300       .  A
H1862      O1863   0.967       .  S
O1863     Ni1871   1.867       .  S
O1863     Ni1865   1.857       .  S
O1863     Ni1870   1.914       .  S
O1864     Ni1865   1.996       .  S
Ni1865     O1869   1.786       .  S
Ni1865     O1867   1.881       .  S
O1866     Ni1871   2.021       .  S
C1868      O1869   1.228       .  A
