geometry optimzed in LAMMPS
_audit_creation_date              2020-12-01 
_audit_creation_method            'lammps2cif' 
_symmetry_space_group_name_H-M    'P1' 
_symmetry_Int_Tables_number       1 
_symmetry_cell_setting            triclinic 
loop_ 
_symmetry_equiv_pos_as_xyz 
  x,y,z 
_cell_length_a                    55.19448582 
_cell_length_b                    55.39285801209856 
_cell_length_c                    27.75782402385366 
_cell_angle_alpha                 89.94262746950396 
_cell_angle_beta                  90.1509237009977 
_cell_angle_gamma                 90.0407241642603 
loop_ 
_atom_site_label 
_atom_site_type_symbol 
_atom_site_fract_x 
_atom_site_fract_y 
_atom_site_fract_z 
_atom_site_charge 
O1          O  0.48487978  0.93587367  0.25567794    -0.83900
O2          O  0.46110547  0.94998506  0.17485588    -0.80900
C3          C  0.44468577  0.95230392  0.14388286     0.99600
O4          O  0.42254263  0.95035085  0.15518268    -0.80900
O5          O  0.41521817  0.90304895  0.18189949    -0.83600
C6          C  0.41604251  0.88376575  0.20568190     1.04100
O7          O  0.42151428  0.88402270  0.25001580    -0.76400
O8          O  0.46879049  0.89972157  0.25200813    -0.76500
C9          C  0.48662002  0.91356856  0.24641279     1.04100
O10         O  0.45243431  0.96591370  0.31163405    -0.83900
O11         O  0.43164967  0.98317030  0.22750577    -0.80900
C12         C  0.40892000  0.98404390  0.23310100     0.99600
O13         O  0.39683586  0.96515764  0.24027104    -0.81000
O14         O  0.38662250  0.91797148  0.26354103    -0.83600
C15         C  0.38989184  0.91554904  0.30854294     1.04100
O16         O  0.41074844  0.91684594  0.32684317    -0.76400
O17         O  0.45909056  0.92893821  0.33670986    -0.76500
C18         C  0.45873426  0.95151497  0.34439287     1.04000
Cr19       Cr  0.45579789  0.95700443  0.24317262     1.93700
Cr20       Cr  0.40737200  0.93405580  0.21302327     1.93200
Cr21       Cr  0.43973239  0.90924071  0.28849072     1.39100
O22         O  0.43414767  0.93354483  0.24839255    -1.21600
O23         O  0.00893706  0.05526063  0.75531870    -0.83900
O24         O  0.03123921  0.04011045  0.67441356    -0.80900
C25         C  0.04707171  0.03657491  0.64300439     0.99600
O26         O  0.06941451  0.03798461  0.65327385    -0.80900
O27         O  0.07813712  0.08538449  0.67912953    -0.83600
C28         C  0.07844527  0.10464477  0.70298622     1.04100
O29         O  0.07408410  0.10449009  0.74775404    -0.76400
O30         O  0.02641536  0.09079274  0.75198426    -0.76500
C31         C  0.00804181  0.07767707  0.74626999     1.04100
O32         O  0.04073213  0.02388432  0.81071694    -0.83900
O33         O  0.06040546  0.00589509  0.72655529    -0.80900
C34         C  0.08320725  0.00447205  0.73144362     0.99600
O35         O  0.09585293  0.02308384  0.73755392    -0.81000
O36         O  0.10777346  0.06997753  0.75936123    -0.83600
C37         C  0.10537988  0.07226293  0.80459591     1.04100
O38         O  0.08481290  0.07119117  0.82407983    -0.76400
O39         O  0.03590735  0.06103126  0.83612259    -0.76500
C40         C  0.03505573  0.03843185  0.84348721     1.04000
Cr41       Cr  0.03710904  0.03293412  0.74242684     1.93700
Cr42       Cr  0.08578979  0.05427063  0.71013193     1.93200
Cr43       Cr  0.05551756  0.08000012  0.78719342     1.39100
O44         O  0.05961051  0.05559332  0.74681378    -1.21600
O45         O  0.18558338  0.75770955  0.50418453    -0.83900
O46         O  0.20180215  0.78103254  0.42470376    -0.80900
C47         C  0.20596564  0.79735250  0.39453231     0.99600
O48         O  0.20496397  0.81943486  0.40619581    -0.80900
O49         O  0.15741387  0.82910152  0.43015758    -0.83600
C50         C  0.13774165  0.82884854  0.45287143     1.04100
O51         O  0.13726675  0.82346310  0.49720653    -0.76400
O52         O  0.15026726  0.77563078  0.49946555    -0.76500
C53         C  0.16320998  0.75716125  0.49406228     1.04100
O54         O  0.21690906  0.78812572  0.56217781    -0.83900
O55         O  0.23620311  0.80827576  0.47963467    -0.80900
C56         C  0.23825874  0.83080285  0.48606034     0.99600
O57         O  0.21991219  0.84379067  0.49267075    -0.81000
O58         O  0.17289646  0.85654953  0.51312248    -0.83600
C59         C  0.16992235  0.85334226  0.55797590     1.04100
O60         O  0.16985502  0.83245038  0.57595364    -0.76400
O61         O  0.17925619  0.78359816  0.58563759    -0.76500
C62         C  0.20182945  0.78251167  0.59413505     1.04000
Cr63       Cr  0.20846504  0.78558757  0.49337034     1.93700
Cr64       Cr  0.18854675  0.83515616  0.46324388     1.93200
Cr65       Cr  0.16107382  0.80402101  0.53679672     1.39100
O66         O  0.18613127  0.80839237  0.49798521    -1.21600
O67         O  0.96556105  0.89930018  0.25906106    -0.83900
O68         O  0.91781388  0.88557227  0.25955472    -0.80900
C69         C  0.91194942  0.88601466  0.30363534     0.99600
O70         O  0.91105959  0.90563051  0.32625574    -0.80900
O71         O  0.91983061  0.95297715  0.35122337    -0.83600
C72         C  0.94184401  0.95402302  0.36413238     1.04100
O73         O  0.95858656  0.95028418  0.33463142    -0.76400
O74         O  0.98309157  0.93476385  0.25594677    -0.76500
C75         C  0.98387867  0.91241172  0.26548266     1.04100
O76         O  0.95770172  0.92836537  0.17286022    -0.83900
O77         O  0.90888000  0.91790176  0.18047852    -0.80900
C78         C  0.88776814  0.91754791  0.19756271     0.99600
O79         O  0.88409721  0.92063959  0.24222505    -0.81000
O80         O  0.89606434  0.96777669  0.26366658    -0.83600
C81         C  0.90875926  0.98623064  0.27138584     1.04100
O82         O  0.93133156  0.98443564  0.27891888    -0.76400
O83         O  0.95268153  0.96574800  0.19698020    -0.76500
C84         C  0.95843412  0.95091301  0.16473259     1.04000
Cr85       Cr  0.93721168  0.90970995  0.22080182     1.93700
Cr86       Cr  0.90486174  0.93655250  0.29316122     1.93200
Cr87       Cr  0.95464972  0.95712441  0.26580030     1.39100
O88         O  0.93210098  0.93456217  0.25968178    -1.21600
O89         O  0.84295229  0.21511246  0.50862475    -0.83900
O90         O  0.85675607  0.16750550  0.51062646    -0.80900
C91         C  0.85662468  0.16236299  0.55504932     0.99600
O92         O  0.83713205  0.16219898  0.57829778    -0.80900
O93         O  0.78987142  0.17173824  0.60387940    -0.83600
C94         C  0.78861382  0.19396835  0.61461336     1.04100
O95         O  0.79175048  0.20999166  0.58335284    -0.76400
O96         O  0.80744597  0.23256423  0.50298768    -0.76500
C97         C  0.82970659  0.23336123  0.51399821     1.04100
O98         O  0.81383834  0.20661179  0.42277593    -0.83900
O99         O  0.82393467  0.15793330  0.43291869    -0.80900
C100        C  0.82426627  0.13711413  0.45123021     0.99600
O101        O  0.82126631  0.13402010  0.49620193    -0.81000
O102        O  0.77426523  0.14623851  0.51865082    -0.83600
C103        C  0.75575993  0.15902815  0.52500811     1.04100
O104        O  0.75752588  0.18165602  0.53026220    -0.76400
O105        O  0.77635107  0.20116720  0.44644977    -0.76500
C106        C  0.79124200  0.20706398  0.41433984     1.04000
Cr107      Cr  0.83246668  0.18657116  0.47153795     1.93700
Cr108      Cr  0.80580941  0.15556255  0.54647742     1.93200
Cr109      Cr  0.78492677  0.20454652  0.51505263     1.39100
O110        O  0.80760251  0.18204333  0.51084708    -1.21600
O111        O  0.14886219  0.27346310  0.50437467    -0.83900
O112        O  0.13496089  0.32102452  0.50675332    -0.80900
C113        C  0.13496679  0.32621312  0.55119039     0.99600
O114        O  0.15439021  0.32639976  0.57488269    -0.80900
O115        O  0.20171999  0.31749776  0.60134501    -0.83600
C116        C  0.20286444  0.29537229  0.61273355     1.04100
O117        O  0.19941096  0.27916911  0.58198933    -0.76400
O118        O  0.18449987  0.25611355  0.50117385    -0.76500
C119        C  0.16205510  0.25520463  0.51024709     1.04100
O120        O  0.17862118  0.28223265  0.41993810    -0.83900
O121        O  0.16810251  0.33098014  0.42978250    -0.80900
C122        C  0.16736619  0.35171057  0.44837204     0.99600
O123        O  0.17011752  0.35464094  0.49338262    -0.81000
O124        O  0.21722856  0.34264895  0.51619685    -0.83600
C125        C  0.23570597  0.32999647  0.52413812     1.04100
O126        O  0.23398426  0.30736409  0.52964101    -0.76400
O127        O  0.21594702  0.28724461  0.44550556    -0.76500
C128        C  0.20131274  0.28132690  0.41280832     1.04000
Cr129      Cr  0.15953516  0.30216276  0.46804500     1.93700
Cr130      Cr  0.18569563  0.33326545  0.54364438     1.93200
Cr131      Cr  0.20679423  0.28426147  0.51378082     1.39100
O132        O  0.18413437  0.30671942  0.50823135    -1.21600
O133        O  0.02492279  0.59194250  0.25499929    -0.83900
O134        O  0.07271511  0.60611640  0.25946237    -0.80900
C135        C  0.07771283  0.60607873  0.30400511     0.99600
O136        O  0.07761365  0.58673001  0.32764171    -0.80900
O137        O  0.06822856  0.53954548  0.35341164    -0.83600
C138        C  0.04585858  0.53810093  0.36340382     1.04100
O139        O  0.02998603  0.54120499  0.33161100    -0.70000
O140        O  0.00785611  0.55629507  0.24971418    -0.76500
C141        C  0.00660924  0.57860255  0.25940162     1.04100
O142        O  0.03490766  0.56265181  0.17047390    -0.83900
O143        O  0.08339705  0.57321284  0.18282538    -0.80900
C144        C  0.10408039  0.57370425  0.20204421     0.99600
O145        O  0.10673949  0.57106693  0.24718256    -0.81000
O146        O  0.09467596  0.52422140  0.26937121    -0.83600
C147        C  0.08199055  0.50567334  0.27584798     1.04100
O148        O  0.05922938  0.50722234  0.28037664    -0.76400
O149        O  0.04036631  0.52545702  0.19538622    -0.76500
C150        C  0.03492392  0.54010586  0.16250199     1.04000
Cr151      Cr  0.05418984  0.58162240  0.21985016     1.93700
Cr152      Cr  0.08479500  0.55555129  0.29655945     1.93200
Cr153      Cr  0.03612562  0.53422671  0.26361321     1.39100
O154        O  0.05851634  0.55704674  0.25990910    -1.21600
O155        O  0.98402988  0.43357937  0.75337326    -0.83900
O156        O  0.95995308  0.44891069  0.67392967    -0.80900
C157        C  0.94337116  0.45286493  0.64404919     0.99600
O158        O  0.92129449  0.45141268  0.65622234    -0.80900
O159        O  0.91256197  0.40394223  0.68282472    -0.83600
C160        C  0.91291160  0.38462997  0.70666552     1.04100
O161        O  0.91850674  0.38469227  0.75091843    -0.76400
O162        O  0.96634176  0.39814332  0.75139034    -0.76500
C163        C  0.98467094  0.41116406  0.74442902     1.04100
O164        O  0.95355467  0.46505182  0.81086752    -0.83900
O165        O  0.93241565  0.48325971  0.72829140    -0.80900
C166        C  0.90979166  0.48501744  0.73502349     0.99600
O167        O  0.89706299  0.46657483  0.74252854    -0.81000
O168        O  0.88515818  0.41964737  0.76535255    -0.83600
C169        C  0.88858059  0.41706460  0.81028668     1.04100
O170        O  0.90959504  0.41782566  0.82808185    -0.76400
O171        O  0.95865923  0.42788106  0.83618636    -0.76500
C172        C  0.95953457  0.45046819  0.84345752     1.04000
Cr173      Cr  0.95572040  0.45602456  0.74245871     1.93700
Cr174      Cr  0.90610228  0.43519376  0.71437456     1.93200
Cr175      Cr  0.93802118  0.40903535  0.78879332     1.39100
O176        O  0.93314920  0.43352981  0.74874093    -1.21600
O177        O  0.34286101  0.71595038  0.00734626    -0.83900
O178        O  0.35675787  0.66846255  0.01093403    -0.80900
C179        C  0.35676915  0.66338232  0.05545312     0.99600
O180        O  0.33737414  0.66314390  0.07898149    -0.80900
O181        O  0.29026296  0.67212350  0.10508160    -0.83600
C182        C  0.28955550  0.69427028  0.11633711     1.04100
O183        O  0.29276252  0.71040824  0.08531443    -0.76400
O184        O  0.30724311  0.73329092  0.00404013    -0.76500
C185        C  0.32970781  0.73421333  0.01324403     1.04100
O186        O  0.31269929  0.70653654  0.92298855    -0.83900
O187        O  0.32345376  0.65810108  0.93400252    -0.80900
C188        C  0.32420212  0.63741832  0.95282053     0.99600
O189        O  0.32161069  0.63459684  0.99787122    -0.81000
O190        O  0.27458127  0.64678086  0.01999248    -0.83600
C191        C  0.25609853  0.65947169  0.02729960     1.04100
O192        O  0.25786527  0.68205560  0.03346423    -0.76400
O193        O  0.27550947  0.70175205  0.94916727    -0.76500
C194        C  0.28996708  0.70699551  0.91585724     1.04000
Cr195      Cr  0.33208003  0.68706360  0.97165339     1.93700
Cr196      Cr  0.30610084  0.65617416  0.04766023     1.93200
Cr197      Cr  0.28500628  0.70512334  0.01726103     1.39100
O198        O  0.30762407  0.68263983  0.01194458    -1.21600
O199        O  0.68478702  0.25772439  0.00761888    -0.83900
O200        O  0.70045872  0.28049048  0.92713833    -0.80900
C201        C  0.70434930  0.29658043  0.89634555     0.99600
O202        O  0.70288773  0.31875554  0.90726430    -0.80900
O203        O  0.65523512  0.32772848  0.93189181    -0.83600
C204        C  0.63569636  0.32766355  0.95502434     1.04100
O205        O  0.63545434  0.32266931  0.99955298    -0.76400
O206        O  0.64917689  0.27507565  0.00297178    -0.76500
C207        C  0.66240602  0.25681516  0.99757835     1.04100
O208        O  0.71588656  0.28919863  0.06405100    -0.83900
O209        O  0.73454265  0.30894466  0.98061936    -0.80900
C210        C  0.73617943  0.33157905  0.98617437     0.99600
O211        O  0.71760581  0.34423570  0.99275770    -0.81000
O212        O  0.67044532  0.35627792  0.01360190    -0.83600
C213        C  0.66768461  0.35343255  0.05863720     1.04100
O214        O  0.66822337  0.33271718  0.07738636    -0.76400
O215        O  0.67845889  0.28408514  0.08841114    -0.76500
C216        C  0.70109483  0.28355792  0.09648311     1.04000
Cr217      Cr  0.70723936  0.28584354  0.99555750     1.93700
Cr218      Cr  0.68633671  0.33472613  0.96412503     1.93200
Cr219      Cr  0.65971839  0.30385506  0.03929615     1.39100
O220        O  0.68453426  0.30827854  0.99983864    -1.21600
O221        O  0.46638647  0.39858908  0.75828134    -0.83900
O222        O  0.41904696  0.38429803  0.76489470    -0.80900
C223        C  0.41506052  0.38453295  0.80976567     0.99600
O224        O  0.41498650  0.40402979  0.83280373    -0.80900
O225        O  0.42364297  0.45140961  0.85691668    -0.83600
C226        C  0.44605033  0.45276117  0.86657622     1.04100
O227        O  0.46170057  0.44956014  0.83459743    -0.76400
O228        O  0.48336161  0.43426221  0.75280997    -0.76500
C229        C  0.48465389  0.41196379  0.76264665     1.04100
O230        O  0.45543344  0.42752774  0.67358623    -0.83900
O231        O  0.40700949  0.41664717  0.68783297    -0.80900
C232        C  0.38660940  0.41566551  0.70798032     0.99600
O233        O  0.38453133  0.41857394  0.75312734    -0.81000
O234        O  0.39639632  0.46585992  0.77323808    -0.83600
C235        C  0.40901612  0.48455042  0.77882603     1.04100
O236        O  0.43184049  0.48321015  0.78296679    -0.76400
O237        O  0.45050386  0.46481703  0.69824116    -0.76500
C238        C  0.45563976  0.45006577  0.66545615     1.04000
Cr239      Cr  0.43677149  0.40867359  0.72392954     1.93700
Cr240      Cr  0.40685406  0.43481854  0.80107385     1.93200
Cr241      Cr  0.45508714  0.45628619  0.76657272     1.39100
O242        O  0.43274846  0.43338799  0.76362595    -1.21600
O243        O  0.30834781  0.23272901  0.00700268    -0.83900
O244        O  0.29308872  0.21061648  0.92524377    -0.80900
C245        C  0.28956931  0.19473298  0.89384960     0.99600
O246        O  0.29076795  0.17249350  0.90428759    -0.80900
O247        O  0.33819628  0.16330133  0.93003700    -0.83600
C248        C  0.35760937  0.16329561  0.95379228     1.04100
O249        O  0.35758627  0.16781752  0.99848417    -0.76400
O250        O  0.34395750  0.21531164  0.00321595    -0.76500
C251        C  0.33084514  0.23369087  0.99836449     1.04100
O252        O  0.27691931  0.20091955  0.06156109    -0.83900
O253        O  0.25865977  0.18186484  0.97694819    -0.80900
C254        C  0.25695089  0.15920034  0.98192548     0.99600
O255        O  0.27547283  0.14643205  0.98852087    -0.81000
O256        O  0.32251383  0.13412444  0.01030763    -0.83600
C257        C  0.32500338  0.13658498  0.05547761     1.04100
O258        O  0.32435253  0.15711218  0.07486430    -0.76400
O259        O  0.31425648  0.20558551  0.08718128    -0.76500
C260        C  0.29160316  0.20610223  0.09465212     1.04000
Cr261      Cr  0.28592488  0.20477014  0.99335173     1.93700
Cr262      Cr  0.30691523  0.15609138  0.96111924     1.93200
Cr263      Cr  0.33315256  0.18625078  0.03804596     1.39100
O264        O  0.30856217  0.18224882  0.99765036    -1.21600
O265        O  0.52784368  0.09146135  0.75996354    -0.83900
O266        O  0.57578583  0.10402955  0.76258817    -0.80900
C267        C  0.58076688  0.10366468  0.80715025     0.99600
O268        O  0.58064773  0.08413265  0.83024793    -0.80900
O269        O  0.57096271  0.03666180  0.85467838    -0.83600
C270        C  0.54874995  0.03568679  0.86600016     1.04100
O271        O  0.53253575  0.04000149  0.83555897    -0.76400
O272        O  0.50948385  0.05640070  0.75602499    -0.76500
C273        C  0.50923870  0.07872861  0.76584424     1.04100
O274        O  0.53548768  0.06231785  0.67431573    -0.83900
O275        O  0.58465090  0.07126982  0.68452615    -0.80900
C276        C  0.60552156  0.07170563  0.70294127     0.99600
O277        O  0.60858257  0.06879738  0.74791900    -0.81000
O278        O  0.59568198  0.02190700  0.76859231    -0.83600
C279        C  0.58262253  0.00358704  0.77488078     1.04100
O280        O  0.55997255  0.00558635  0.78102322    -0.76400
O281        O  0.53975102  0.02484223  0.69837631    -0.76500
C282        C  0.53413041  0.03980980  0.66621696     1.04000
Cr283      Cr  0.55615536  0.08036049  0.72308748     1.93700
Cr284      Cr  0.58693716  0.05311076  0.79766124     1.93200
Cr285      Cr  0.53723895  0.03333028  0.76705036     1.39100
O286        O  0.56023971  0.05547385  0.76239898    -1.21600
O287        O  0.64938237  0.77279523  0.01014174    -0.83900
O288        O  0.63438633  0.82008194  0.00978871    -0.80900
C289        C  0.63443951  0.82597783  0.05387691     0.99600
O290        O  0.65389521  0.82685562  0.07731327    -0.80900
O291        O  0.70138709  0.81984680  0.10386361    -0.83600
C292        C  0.70296066  0.79796155  0.11676322     1.04100
O293        O  0.70000377  0.78118527  0.08705169    -0.76400
O294        O  0.68546889  0.75630941  0.00811852    -0.76500
C295        C  0.66301943  0.75495069  0.01704055     1.04100
O296        O  0.67876402  0.78098671  0.92483435    -0.83900
O297        O  0.66716392  0.82952101  0.93186007    -0.80900
C298        C  0.66615503  0.85054728  0.94897971     0.99600
O299        O  0.66857357  0.85428223  0.99381839    -0.81000
O300        O  0.71593129  0.84399416  0.01678527    -0.83600
C301        C  0.73479910  0.83193262  0.02466142     1.04100
O302        O  0.73370715  0.80938470  0.03206540    -0.76400
O303        O  0.71600521  0.78723648  0.94975407    -0.76500
C304        C  0.70145335  0.78065764  0.91739039     1.04000
Cr305      Cr  0.65930152  0.80117402  0.97198833     1.93700
Cr306      Cr  0.68481316  0.83415208  0.04527642     1.93200
Cr307      Cr  0.70709095  0.78524748  0.01840000     1.39100
O308        O  0.68386155  0.80699949  0.01161073    -1.21600
O309        O  0.80774742  0.73321368  0.50741789    -0.83900
O310        O  0.79187205  0.71073673  0.42675975    -0.80900
C311        C  0.78774551  0.69481520  0.39578486     0.99600
O312        O  0.78906889  0.67258038  0.40638346    -0.80900
O313        O  0.83676350  0.66325690  0.43035459    -0.83600
C314        C  0.85642924  0.66306666  0.45323574     1.04100
O315        O  0.85698010  0.66816373  0.49773770    -0.76400
O316        O  0.84328300  0.71581431  0.50219625    -0.76500
C317        C  0.83008810  0.73414342  0.49725188     1.04100
O318        O  0.77673624  0.70162202  0.56360513    -0.83900
O319        O  0.75777436  0.68217016  0.47981455    -0.80900
C320        C  0.75610968  0.65951438  0.48516221     0.99600
O321        O  0.77468073  0.64681672  0.49169764    -0.81000
O322        O  0.82196184  0.63448202  0.51194327    -0.83600
C323        C  0.82516011  0.63717346  0.55693429     1.04100
O324        O  0.82465345  0.65781167  0.57591973    -0.76400
O325        O  0.81429337  0.70637477  0.58792548    -0.76500
C326        C  0.79166154  0.70701782  0.59613410     1.04000
Cr327      Cr  0.78521252  0.70515524  0.49505764     1.93700
Cr328      Cr  0.80583084  0.65630509  0.46289730     1.93200
Cr329      Cr  0.83289946  0.68685338  0.53816826     1.39100
O330        O  0.80787686  0.68262073  0.49893178    -1.21600
O331        O  0.50782541  0.55544467  0.25681413    -0.83900
O332        O  0.53191720  0.54082543  0.17704932    -0.80900
C333        C  0.54850425  0.53728638  0.14713847     0.99600
O334        O  0.57057120  0.53838466  0.15959010    -0.80900
O335        O  0.57906584  0.58553413  0.18644139    -0.83600
C336        C  0.57860304  0.60482786  0.21015650     1.04100
O337        O  0.57307661  0.60473922  0.25441350    -0.76400
O338        O  0.52527191  0.59100548  0.25506553    -0.76500
C339        C  0.50695447  0.57790612  0.24843736     1.04100
O340        O  0.53847128  0.52393166  0.31379711    -0.83900
O341        O  0.55963962  0.50621484  0.23074273    -0.80900
C342        C  0.58228175  0.50451914  0.23756721     0.99600
O343        O  0.59488768  0.52294900  0.24592070    -0.81000
O344        O  0.60668489  0.56981985  0.26901227    -0.83600
C345        C  0.60331816  0.57222646  0.31392844     1.04100
O346        O  0.58233076  0.57143091  0.33159939    -0.76400
O347        O  0.53335645  0.56103699  0.33946222    -0.76500
C348        C  0.53238979  0.53841255  0.34642195     1.04000
Cr349      Cr  0.53623248  0.53326144  0.24545475     1.93700
Cr350      Cr  0.58573068  0.55434502  0.21793440     1.93200
Cr351      Cr  0.55378747  0.58017852  0.29228512     1.39100
O352        O  0.55871419  0.55581492  0.25213880    -1.21600
C353        C  0.65853605  0.59797727  0.39636902     0.18500
C354        C  0.68095856  0.58678604  0.40433816    -0.10600
C355        C  0.69952979  0.59927868  0.42816084    -0.11500
C356        C  0.69577545  0.62300212  0.44416952     0.20100
C357        C  0.67324890  0.63403826  0.43673873    -0.13500
C358        C  0.65469831  0.62155742  0.41297635    -0.11800
C359        C  0.71552430  0.63652211  0.46508596     0.01000
C360        C  0.73324376  0.64760913  0.47793449    -0.31800
C361        C  0.63978755  0.58597691  0.36912093     0.02400
C362        C  0.62345555  0.57819519  0.34461833    -0.33500
H363        H  0.68421700  0.56863736  0.39141917     0.13500
H364        H  0.71695365  0.59062082  0.43325840     0.13300
H365        H  0.67018096  0.65242260  0.44846526     0.13100
H366        H  0.63749206  0.63046677  0.40675161     0.12200
C367        C  0.63097476  0.69788130  0.08414252     0.18500
C368        C  0.62418860  0.70236641  0.13197015    -0.10600
C369        C  0.61208335  0.68461780  0.15863026    -0.11500
C370        C  0.60663853  0.66227406  0.13759233     0.20100
C371        C  0.61341478  0.65779028  0.08976321    -0.13500
C372        C  0.62552272  0.67554057  0.06310070    -0.11800
C373        C  0.59484727  0.64361898  0.16529490     0.01000
C374        C  0.58630313  0.62675538  0.18703275    -0.31800
C375        C  0.64323267  0.71638181  0.05681114     0.02400
C376        C  0.65284824  0.73311329  0.03646633    -0.33500
H377        H  0.62827343  0.71957701  0.14864880     0.13500
H378        H  0.60707698  0.68827363  0.19562104     0.13300
H379        H  0.60943185  0.64053832  0.07316648     0.13100
H380        H  0.63063361  0.67184386  0.02618420     0.12200
C381        C  0.73389735  0.75299511  0.79671534     0.18500
C382        C  0.72741155  0.73037437  0.77794627    -0.10600
C383        C  0.74028608  0.72047603  0.73915152    -0.11500
C384        C  0.75983837  0.73305956  0.71879949     0.20100
C385        C  0.76632551  0.75566203  0.73761685    -0.13500
C386        C  0.75345672  0.76555608  0.77638872    -0.11800
C387        C  0.77273072  0.72315202  0.67782647     0.01000
C388        C  0.78245084  0.71537784  0.64190912    -0.31800
C389        C  0.72091566  0.76309978  0.83736464     0.02400
C390        C  0.71110596  0.77139820  0.87270006    -0.33500
H391        H  0.71241361  0.72037695  0.79330249     0.13500
H392        H  0.73494727  0.70305998  0.72495218     0.13300
H393        H  0.78129510  0.76568712  0.72222080     0.13100
H394        H  0.75877274  0.78299281  0.79052238     0.12200
C395        C  0.73259056  0.76489674  0.22964703     0.18500
C396        C  0.72307270  0.75866005  0.27467114    -0.10600
C397        C  0.73500853  0.74163088  0.30347151    -0.11500
C398        C  0.75640583  0.73066940  0.28723945     0.20100
C399        C  0.76593569  0.73698491  0.24230709    -0.13500
C400        C  0.75402722  0.75400592  0.21356091    -0.11800
C401        C  0.76914397  0.71406403  0.31815817     0.01000
C402        C  0.77888353  0.70278240  0.34990731    -0.31800
C403        C  0.71977065  0.78102821  0.19791824     0.02400
C404        C  0.71063193  0.79141754  0.16432937    -0.33500
H405        H  0.70639874  0.76677470  0.28728768     0.13500
H406        H  0.72760340  0.73704551  0.33840732     0.13300
H407        H  0.78256230  0.72881806  0.22957121     0.13100
H408        H  0.76141307  0.75852485  0.17857215     0.12200
C409        C  0.61889190  0.94351673  0.81554190     0.18500
C410        C  0.61543076  0.91952170  0.80112813    -0.10600
C411        C  0.62736730  0.90080861  0.82549279    -0.11500
C412        C  0.64280094  0.90600036  0.86436304     0.20100
C413        C  0.64666843  0.93003133  0.87802492    -0.13500
C414        C  0.63476568  0.94871432  0.85368184    -0.11800
C415        C  0.65326653  0.88667245  0.89232588     0.01000
C416        C  0.66029458  0.87035221  0.91758748    -0.31800
C417        C  0.60524306  0.96282754  0.79358088     0.02400
C418        C  0.59420055  0.98055940  0.78097262    -0.33500
H419        H  0.60313671  0.91525376  0.77188231     0.13500
H420        H  0.62411503  0.88227647  0.81477992     0.13300
H421        H  0.65841415  0.93428042  0.90817287     0.13100
H422        H  0.63750762  0.96718806  0.86533132     0.12200
C423        C  0.41644086  0.13701516  0.88275263     0.18500
C424        C  0.43636251  0.12716580  0.90724326    -0.10600
C425        C  0.45450938  0.11508227  0.88164997    -0.11500
C426        C  0.45280654  0.11271712  0.83144218     0.20100
C427        C  0.43301333  0.12277054  0.80694287    -0.13500
C428        C  0.41487825  0.13485073  0.83252171    -0.11800
C429        C  0.47139372  0.10004258  0.80520985     0.01000
C430        C  0.48782643  0.08980232  0.78515753    -0.31800
C431        C  0.39701442  0.14827116  0.90916082     0.02400
C432        C  0.37966503  0.15623108  0.93026131    -0.33500
H433        H  0.43772841  0.12859544  0.94607376     0.13500
H434        H  0.46976141  0.10744411  0.90101624     0.13300
H435        H  0.43151647  0.12112708  0.76816759     0.13100
H436        H  0.39950775  0.14226982  0.81319333     0.12200
C437        C  0.48111607  0.48132956  0.54224820     0.18500
C438        C  0.49554630  0.46895923  0.50892858    -0.10600
C439        C  0.50627315  0.48140647  0.47051453    -0.11500
C440        C  0.50271037  0.50634160  0.46515762     0.20100
C441        C  0.48811306  0.51867772  0.49824647    -0.13500
C442        C  0.47738347  0.50622869  0.53666339    -0.11800
C443        C  0.51382321  0.51910651  0.42544936     0.01000
C444        C  0.52277000  0.52881175  0.39070857    -0.31800
C445        C  0.47095745  0.46876515  0.58319280     0.02400
C446        C  0.46334535  0.45929876  0.61941792    -0.33500
H447        H  0.49867159  0.44974696  0.51286398     0.13500
H448        H  0.51742365  0.47161208  0.44512789     0.13300
H449        H  0.48511213  0.53791754  0.49447922     0.13100
H450        H  0.46635470  0.51604810  0.56222136     0.12200
C451        C  0.51474626  0.50766152  0.03471537     0.18500
C452        C  0.52293076  0.48809851  0.00732268    -0.10600
C453        C  0.50658459  0.47499781  0.97895303    -0.11500
C454        C  0.48197535  0.48129185  0.97817186     0.20100
C455        C  0.47380087  0.50080939  0.00566563    -0.13500
C456        C  0.49013542  0.51390684  0.03399293    -0.11800
C457        C  0.46567119  0.46903297  0.94592671     0.01000
C458        C  0.45442650  0.46029898  0.91302746    -0.31800
C459        C  0.53095241  0.52013402  0.06682212     0.02400
C460        C  0.54152062  0.52934908  0.10007168    -0.33500
H461        H  0.54185043  0.48290748  0.00811439     0.13500
H462        H  0.51314779  0.46010523  0.95734531     0.13300
H463        H  0.45488308  0.50601331  0.00489317     0.13100
H464        H  0.48356044  0.52880477  0.05557163     0.12200
C465        C  0.36413423  0.29158491  0.93723635     0.18500
C466        C  0.35093769  0.30774424  0.90856637    -0.10600
C467        C  0.36298740  0.32547032  0.88188572    -0.11500
C468        C  0.38831568  0.32712247  0.88356889     0.20100
C469        C  0.40155346  0.31099024  0.91228005    -0.13500
C470        C  0.38948262  0.29322803  0.93899561    -0.11800
C471        C  0.40040819  0.34578684  0.85657338     0.01000
C472        C  0.40848852  0.36270738  0.83441550    -0.31800
C473        C  0.35173601  0.27267588  0.96301185     0.02400
C474        C  0.34167605  0.25571036  0.98155595    -0.33500
H475        H  0.33136520  0.30654945  0.90661632     0.13500
H476        H  0.35255622  0.33788978  0.85992853     0.13300
H477        H  0.42113209  0.31213365  0.91398931     0.13100
H478        H  0.39989430  0.28071353  0.96076304     0.12200
C479        C  0.57788521  0.35550380  0.88214705     0.18500
C480        C  0.56684877  0.37636132  0.90037180    -0.10600
C481        C  0.54916599  0.38844042  0.87330331    -0.11500
C482        C  0.54244047  0.37980726  0.82771663     0.20100
C483        C  0.55339052  0.35888474  0.80956884    -0.13500
C484        C  0.57108869  0.34680005  0.83665333    -0.11800
C485        C  0.52373496  0.39197435  0.80051084     0.01000
C486        C  0.50683491  0.40168125  0.78064915    -0.31800
C487        C  0.59687118  0.34370903  0.90922843     0.02400
C488        C  0.61385887  0.33524684  0.93097936    -0.33500
H489        H  0.57200874  0.38336026  0.93536994     0.13500
H490        H  0.54073535  0.40448957  0.88791826     0.13300
H491        H  0.54824778  0.35191798  0.77454198     0.13100
H492        H  0.57955411  0.33077400  0.82203165     0.12200
C493        C  0.61812277  0.44473327  0.19312754     0.18500
C494        C  0.60540438  0.42438461  0.17701885    -0.10600
C495        C  0.61739853  0.40628462  0.15132970    -0.11500
C496        C  0.64220076  0.40839333  0.14140560     0.20100
C497        C  0.65504034  0.42860166  0.15800124    -0.13500
C498        C  0.64301906  0.44674147  0.18375230    -0.11800
C499        C  0.65401466  0.39003408  0.11305745     0.01000
C500        C  0.66168872  0.37381954  0.08835628    -0.31800
C501        C  0.60524738  0.46432029  0.21581727     0.02400
C502        C  0.59433879  0.48187434  0.22969089    -0.33500
H503        H  0.58612756  0.42272359  0.18352587     0.13500
H504        H  0.60724530  0.39080074  0.13857077     0.13300
H505        H  0.67419588  0.43049986  0.15045455     0.13100
H506        H  0.65301610  0.46251131  0.19554737     0.12200
C507        C  0.63072821  0.19904591  0.93148594     0.18500
C508        C  0.60938808  0.18843206  0.94882058    -0.10600
C509        C  0.59793912  0.17007594  0.92253959    -0.11500
C510        C  0.60770359  0.16225656  0.87866617     0.20100
C511        C  0.62894713  0.17299935  0.86116265    -0.13500
C512        C  0.64039301  0.19134615  0.88743474    -0.11800
C513        C  0.59650858  0.14265352  0.85248043     0.01000
C514        C  0.58836757  0.12540898  0.83123061    -0.31800
C515        C  0.64243069  0.21815349  0.95824999     0.02400
C516        C  0.65192015  0.23503635  0.97842143    -0.33500
H517        H  0.60164420  0.19429951  0.98264776     0.13500
H518        H  0.58157647  0.16188136  0.93657784     0.13300
H519        H  0.63673985  0.16708775  0.82740468     0.13100
H520        H  0.65679783  0.19948507  0.87345502     0.12200
C521        C  0.34852934  0.58147263  0.87101686     0.18500
C522        C  0.36626936  0.58691096  0.83655723    -0.10600
C523        C  0.37821672  0.56831030  0.81207758    -0.11500
C524        C  0.37247438  0.54415922  0.82189415     0.20100
C525        C  0.35444520  0.53875353  0.85576622    -0.13500
C526        C  0.34252027  0.55733696  0.88024677    -0.11800
C527        C  0.38591068  0.52480353  0.79969419     0.01000
C528        C  0.39694074  0.50722884  0.78629530    -0.31800
C529        C  0.33757975  0.60057728  0.89874729     0.02400
C530        C  0.33017715  0.61702363  0.92314647    -0.33500
H531        H  0.37119258  0.60549427  0.82931349     0.13500
H532        H  0.39221998  0.57274256  0.78624953     0.13300
H533        H  0.34994847  0.52015761  0.86394194     0.13100
H534        H  0.32896954  0.55287206  0.90699788     0.12200
C535        C  0.41423147  0.63534887  0.12885289     0.18500
C536        C  0.41703123  0.64016892  0.17815953    -0.10600
C537        C  0.43466327  0.62791228  0.20512453    -0.11500
C538        C  0.44954112  0.61069856  0.18299689     0.20100
C539        C  0.44668510  0.60585530  0.13373243    -0.13500
C540        C  0.42907854  0.61810375  0.10679489    -0.11800
C541        C  0.46825329  0.59850672  0.21013972     0.01000
C542        C  0.48511028  0.58867709  0.22990989    -0.31800
C543        C  0.39551134  0.64731096  0.10134600     0.02400
C544        C  0.37869699  0.65585437  0.07920265    -0.33500
H545        H  0.40555813  0.65331515  0.19573938     0.13500
H546        H  0.43672745  0.63189663  0.24313924     0.13300
H547        H  0.45810632  0.59266355  0.11613619     0.13100
H548        H  0.42699127  0.61406490  0.06880697     0.12200
C549        C  0.87472885  0.54572478  0.69265293     0.18500
C550        C  0.88792124  0.56533287  0.67453386    -0.10600
C551        C  0.87617593  0.58353267  0.64842704    -0.11500
C552        C  0.85113765  0.58225978  0.64010407     0.20100
C553        C  0.83783588  0.56286899  0.65892964    -0.13500
C554        C  0.84960260  0.54463644  0.68508160    -0.11800
C555        C  0.83946174  0.60061180  0.61124451     0.01000
C556        C  0.83158948  0.61673777  0.58637113    -0.31800
C557        C  0.88727719  0.52577318  0.71506097     0.02400
C558        C  0.89791892  0.50787780  0.72821792    -0.33500
H559        H  0.90737376  0.56628203  0.67965326     0.13500
H560        H  0.88668295  0.59838917  0.63403996     0.13300
H561        H  0.81848057  0.56163671  0.65272700     0.13100
H562        H  0.83922108  0.52945759  0.69844384     0.12200
C563        C  0.79676365  0.36665959  0.94289337     0.18500
C564        C  0.81421267  0.35353182  0.91742419    -0.10600
C565        C  0.83255658  0.36558031  0.89238083    -0.11500
C566        C  0.83358576  0.39086429  0.89246916     0.20100
C567        C  0.81624616  0.40404809  0.91822512    -0.13500
C568        C  0.79785067  0.39196772  0.94332377    -0.11800
C569        C  0.85224820  0.40296915  0.86526578     0.01000
C570        C  0.86849588  0.41089510  0.84082957    -0.31800
C571        C  0.77683501  0.35414900  0.96538546     0.02400
C572        C  0.75901726  0.34348302  0.97891621    -0.33500
H573        H  0.81341561  0.33399683  0.91629746     0.13500
H574        H  0.84579177  0.35517787  0.87248115     0.13300
H575        H  0.81678508  0.42359647  0.91845822     0.13100
H576        H  0.78429521  0.40234077  0.96240116     0.12200
C577        C  0.94820917  0.61029848  0.32290714     0.18500
C578        C  0.94496528  0.63531890  0.31858169    -0.10600
C579        C  0.92736577  0.64713779  0.34617138    -0.11500
C580        C  0.91291578  0.63404132  0.37842718     0.20100
C581        C  0.91608019  0.60899438  0.38256830    -0.13500
C582        C  0.93367669  0.59717750  0.35498331    -0.11800
C583        C  0.89448381  0.64609982  0.40645591     0.01000
C584        C  0.87797583  0.65498595  0.42887474    -0.31800
C585        C  0.96721852  0.59834106  0.29632368     0.02400
C586        C  0.98437255  0.58887343  0.27702557    -0.33500
H587        H  0.95616701  0.64571604  0.29417675     0.13500
H588        H  0.92506529  0.66646924  0.34241996     0.13300
H589        H  0.90498071  0.59861185  0.40718402     0.13100
H590        H  0.93607598  0.57786720  0.35895164     0.12200
C591        C  0.00951307  0.50844393  0.03955476     0.18500
C592        C  0.99199560  0.51951466  0.01031431    -0.10600
C593        C  0.98142509  0.50676354  0.97207782    -0.11500
C594        C  0.98823827  0.48282251  0.96284021     0.20100
C595        C  0.00588312  0.47180798  0.99186286    -0.13500
C596        C  0.01645498  0.48456070  0.03010322    -0.11800
C597        C  0.97745803  0.46980151  0.92307451     0.01000
C598        C  0.96884715  0.45996048  0.88811994    -0.31800
C599        C  0.01958558  0.52116328  0.08041941     0.02400
C600        C  0.02715429  0.53074405  0.11658699    -0.33500
H601        H  0.98637920  0.53790823  0.01729544     0.13500
H602        H  0.96789436  0.51555273  0.94980256     0.13300
H603        H  0.01141079  0.45337508  0.98502430     0.13100
H604        H  0.02989906  0.47573344  0.05252644     0.12200
C605        C  0.97661642  0.48451952  0.53259002     0.18500
C606        C  0.98814856  0.47237345  0.49486127    -0.10600
C607        C  0.00492221  0.48452897  0.46593933    -0.11500
C608        C  0.01040071  0.50885771  0.47473014     0.20100
C609        C  0.99881572  0.52105560  0.51236282    -0.13500
C610        C  0.98203260  0.50888478  0.54132695    -0.11800
C611        C  0.02660734  0.52147562  0.44279478     0.01000
C612        C  0.03773819  0.53045501  0.41000773    -0.31800
C613        C  0.96082189  0.47160161  0.56488539     0.02400
C614        C  0.95038725  0.46173606  0.59758122    -0.33500
H615        H  0.98434515  0.45348958  0.48808662     0.13500
H616        H  0.01356215  0.47497996  0.43658469     0.13300
H617        H  0.00268251  0.53992147  0.51918824     0.13100
H618        H  0.97344211  0.51839900  0.57078136     0.12200
C619        C  0.15908841  0.59944888  0.11981987     0.18500
C620        C  0.17768645  0.58645859  0.09738114    -0.10600
C621        C  0.19587138  0.59872777  0.07208370    -0.11500
C622        C  0.19547872  0.62401128  0.06901947     0.20100
C623        C  0.17665719  0.63691023  0.09080864    -0.13500
C624        C  0.15851807  0.62467344  0.11603953    -0.11800
C625        C  0.21536489  0.63685654  0.04722847     0.01000
C626        C  0.23322056  0.64763552  0.03432651    -0.31800
C627        C  0.14082696  0.58729275  0.14787531     0.02400
C628        C  0.12463108  0.57954280  0.17260041    -0.33500
H629        H  0.17834673  0.56695802  0.10009719     0.13500
H630        H  0.21047492  0.58856668  0.05581515     0.13300
H631        H  0.17628243  0.65645285  0.08916467     0.13100
H632        H  0.14425811  0.63491441  0.13329460     0.12200
C633        C  0.33107502  0.38915880  0.62689094     0.18500
C634        C  0.30929392  0.40096322  0.61594067    -0.10600
C635        C  0.29134937  0.38909903  0.58912813    -0.11500
C636        C  0.29509181  0.36539370  0.57302998     0.20100
C637        C  0.31694007  0.35367322  0.58371907    -0.13500
C638        C  0.33486984  0.36552744  0.61049518    -0.11800
C639        C  0.27586710  0.35257804  0.54867250     0.01000
C640        C  0.25840028  0.34188962  0.53333568    -0.31800
C641        C  0.34944829  0.40092441  0.65557765     0.02400
C642        C  0.36579406  0.40898673  0.67971188    -0.33500
H643        H  0.30609108  0.41918029  0.62851787     0.13500
H644        H  0.27441810  0.39827118  0.58157970     0.13300
H645        H  0.31996217  0.33527960  0.57200244     0.13100
H646        H  0.35160093  0.35616623  0.61886314     0.12200
C647        C  0.25962402  0.23232801  0.21635706     0.18500
C648        C  0.25245903  0.25660216  0.21481867    -0.10600
C649        C  0.23948156  0.26669723  0.25313170    -0.11500
C650        C  0.23349323  0.25259550  0.29333525     0.20100
C651        C  0.24066014  0.22829857  0.29492445    -0.13500
C652        C  0.25364935  0.21818938  0.25655840    -0.11800
C653        C  0.22057626  0.26320743  0.33336941     0.01000
C654        C  0.21083154  0.27191885  0.36827956    -0.31800
C655        C  0.27250725  0.22194631  0.17607678     0.02400
C656        C  0.28218033  0.21413836  0.14027382    -0.33500
H657        H  0.25686179  0.26772982  0.18391067     0.13500
H658        H  0.23416624  0.28549365  0.25144069     0.13300
H659        H  0.23624885  0.21718641  0.32584570     0.13100
H660        H  0.25897135  0.19939386  0.25819830     0.12200
C661        C  0.23254878  0.26127031  0.72503151     0.18500
C662        C  0.25014960  0.27028328  0.75665339    -0.10600
C663        C  0.26360520  0.25439850  0.78532902    -0.11500
C664        C  0.25963732  0.22943348  0.78227482     0.20100
C665        C  0.24202862  0.22042030  0.75066544    -0.13500
C666        C  0.22857257  0.23630523  0.72199068    -0.11800
C667        C  0.27238022  0.21345736  0.81439757     0.01000
C668        C  0.28162535  0.20263754  0.84730880    -0.31800
C669        C  0.21987074  0.27723249  0.69278661     0.02400
C670        C  0.21069768  0.28791628  0.65962567    -0.33500
H671        H  0.25357637  0.28951461  0.75889087     0.13500
H672        H  0.27699132  0.26157561  0.81008974     0.13300
H673        H  0.23861219  0.20118790  0.74840519     0.13100
H674        H  0.21519706  0.22912720  0.69720806     0.12200
C675        C  0.07727989  0.35393839  0.62409466     0.18500
C676        C  0.08275777  0.36385445  0.66932367    -0.10600
C677        C  0.06484431  0.37580303  0.69584242    -0.11500
C678        C  0.04130105  0.37796213  0.67732213     0.20100
C679        C  0.03579739  0.36799336  0.63213152    -0.13500
C680        C  0.05371846  0.35604365  0.60559935    -0.11800
C681        C  0.02275967  0.39037612  0.70440018     0.01000
C682        C  0.00621963  0.40033977  0.72481226    -0.31800
C683        C  0.09606970  0.34227845  0.59638535     0.02400
C684        C  0.11300493  0.33383741  0.57458520    -0.33500
H685        H  0.10091549  0.36246212  0.68397270     0.13500
H686        H  0.06937243  0.38341181  0.73066508     0.13300
H687        H  0.01767801  0.36952962  0.61734809     0.13100
H688        H  0.04923877  0.34857677  0.57063046     0.12200
C689        C  0.14215432  0.40861750  0.36998443     0.18500
C690        C  0.13369886  0.42860990  0.39581437    -0.10600
C691        C  0.12153764  0.44727342  0.37194860    -0.11500
C692        C  0.11767062  0.44610568  0.32206798     0.20100
C693        C  0.12629193  0.42621227  0.29606737    -0.13500
C694        C  0.13848062  0.40749278  0.32000432    -0.11800
C695        C  0.10473814  0.46540335  0.29832557     0.01000
C696        C  0.09394869  0.48297750  0.28400010    -0.31800
C697        C  0.15346096  0.38884374  0.39536469     0.02400
C698        C  0.16114010  0.37207707  0.41867608    -0.33500
H699        H  0.13626671  0.42964085  0.43445160     0.13500
H700        H  0.11497534  0.46255787  0.39248678     0.13300
H701        H  0.12344189  0.42509113  0.25753124     0.13100
H702        H  0.14479698  0.39204898  0.29965737     0.12200
C703        C  0.69514418  0.12368939  0.56724565     0.18500
C704        C  0.69515360  0.09836450  0.56838013    -0.10600
C705        C  0.67732593  0.08589394  0.59428827    -0.11500
C706        C  0.65944740  0.09870100  0.61929388     0.20100
C707        C  0.65920103  0.12399106  0.61739691    -0.13500
C708        C  0.67699395  0.13643694  0.59153996    -0.11800
C709        C  0.64158817  0.08621795  0.64786891     0.01000
C710        C  0.62575100  0.07800870  0.67295703    -0.31800
C711        C  0.71489017  0.13661267  0.54501800     0.02400
C712        C  0.73278458  0.14730390  0.53193392    -0.33500
H713        H  0.70922945  0.08829921  0.55016733     0.13500
H714        H  0.67772386  0.06634603  0.59547413     0.13300
H715        H  0.64548656  0.13410169  0.63658874     0.13100
H716        H  0.67691323  0.15599929  0.59139971     0.12200
C717        C  0.75983846  0.23489064  0.29301651     0.18500
C718        C  0.76512489  0.25849847  0.27802312    -0.10600
C719        C  0.75203192  0.26905307  0.24013627    -0.11500
C720        C  0.73349221  0.25611161  0.21705576     0.20100
C721        C  0.72828441  0.23247862  0.23193596    -0.13500
C722        C  0.74137180  0.22192863  0.26979675    -0.11800
C723        C  0.72035548  0.26673533  0.17718682     0.01000
C724        C  0.71045611  0.27493843  0.14185422    -0.31800
C725        C  0.77264942  0.22431247  0.33334264     0.02400
C726        C  0.78211991  0.21593967  0.36897519    -0.33500
H727        H  0.77926732  0.26877754  0.29575691     0.13500
H728        H  0.75636854  0.28727340  0.22884473     0.13300
H729        H  0.71412004  0.22220345  0.21425914     0.13100
H730        H  0.73700714  0.20371950  0.28111563     0.12200
C731        C  0.76105496  0.22975359  0.72696257     0.18500
C732        C  0.75786680  0.25392520  0.71307288    -0.10600
C733        C  0.74517947  0.26991472  0.74277362    -0.11500
C734        C  0.73554956  0.26178349  0.78648181     0.20100
C735        C  0.73892498  0.23767279  0.80055122    -0.13500
C736        C  0.75160011  0.22168821  0.77085646    -0.11800
C737        C  0.72275801  0.27802649  0.81796783     0.01000
C738        C  0.71307211  0.28892059  0.85021512    -0.31800
C739        C  0.77286293  0.21319515  0.69460679     0.02400
C740        C  0.78129844  0.20186655  0.66156230    -0.33500
H741        H  0.76498913  0.26034064  0.67904306     0.13500
H742        H  0.74283501  0.28851793  0.73163323     0.13300
H743        H  0.73168566  0.23121808  0.83445464     0.13100
H744        H  0.75381435  0.20305169  0.78187973     0.12200
C745        C  0.88522815  0.32621541  0.63622818     0.18500
C746        C  0.88715217  0.32569047  0.58590089    -0.10600
C747        C  0.87529361  0.30774410  0.55932886    -0.11500
C748        C  0.86136644  0.29021003  0.58288311     0.20100
C749        C  0.85949764  0.29064825  0.63327642    -0.13500
C750        C  0.87136630  0.30862051  0.65987989    -0.11800
C751        C  0.84941779  0.27151642  0.55549847     0.01000
C752        C  0.83998819  0.25492578  0.53434939    -0.31800
C753        C  0.89665243  0.34541522  0.66310416     0.02400
C754        C  0.90508421  0.36264967  0.68387166    -0.33500
H755        H  0.89769737  0.33926107  0.56716231     0.13500
H756        H  0.87695779  0.30756216  0.52046231     0.13300
H757        H  0.84885037  0.27713612  0.65195860     0.13100
H758        H  0.86961320  0.30888925  0.69873074     0.12200
C759        C  0.79520300  0.86890531  0.06365624     0.18500
C760        C  0.81757197  0.85745704  0.07047259    -0.10600
C761        C  0.83631071  0.86933620  0.09489092    -0.11500
C762        C  0.83281856  0.89273782  0.11277009     0.20100
C763        C  0.81061416  0.90441067  0.10510392    -0.13500
C764        C  0.79185235  0.89251806  0.08063627    -0.11800
C765        C  0.85161371  0.90403953  0.14112670     0.01000
C766        C  0.86779762  0.91152280  0.16641801    -0.31800
C767        C  0.77513996  0.85573877  0.04300522     0.02400
C768        C  0.75738465  0.84450346  0.03087400    -0.33500
H769        H  0.82033011  0.83914517  0.05797291     0.13500
H770        H  0.85334223  0.86006236  0.10078379     0.13300
H771        H  0.80763043  0.92244311  0.11893144     0.13100
H772        H  0.77456640  0.90149462  0.07601524     0.12200
C773        C  0.86206736  0.79164232  0.43090721     0.18500
C774        C  0.87469379  0.81016303  0.45450416    -0.10600
C775        C  0.88632140  0.82824365  0.42779572    -0.11500
C776        C  0.88546381  0.82790888  0.37728339     0.20100
C777        C  0.87293661  0.80932015  0.35369226    -0.13500
C778        C  0.86131313  0.79124816  0.38038845    -0.11800
C779        C  0.89656004  0.84714360  0.34985189     0.01000
C780        C  0.90457792  0.86420602  0.32782731    -0.31800
C781        C  0.85017526  0.77282670  0.45819128     0.02400
C782        C  0.84057759  0.75600541  0.47838678    -0.33500
H783        H  0.87549928  0.81066435  0.49349927     0.13500
H784        H  0.89582540  0.84256170  0.44651673     0.13300
H785        H  0.87200833  0.80888840  0.31470074     0.13100
H786        H  0.85169145  0.77701017  0.36165316     0.12200
C787        C  0.85001439  0.08316277  0.36591329     0.18500
C788        C  0.83657945  0.06554444  0.34129815    -0.10600
C789        C  0.84848985  0.04754437  0.31491028    -0.11500
C790        C  0.87389162  0.04710702  0.31287053     0.20100
C791        C  0.88725085  0.06504132  0.33662559    -0.13500
C792        C  0.87536879  0.08299670  0.36295598    -0.11800
C793        C  0.88632777  0.02711497  0.29049214     0.01000
C794        C  0.89689579  0.00914252  0.27763136    -0.31800
C795        C  0.83813329  0.10111193  0.39529444     0.02400
C796        C  0.83034308  0.11692009  0.42094924    -0.33500
H797        H  0.81697717  0.06545143  0.34323679     0.13500
H798        H  0.83793629  0.03366095  0.29711585     0.13300
H799        H  0.90687518  0.06480243  0.33578923     0.13100
H800        H  0.88598284  0.09649483  0.38177900     0.12200
C801        C  0.10650859  0.66360028  0.37574137     0.18500
C802        C  0.09405563  0.68456705  0.38920342    -0.10600
C803        C  0.10590969  0.70259416  0.41568785    -0.11500
C804        C  0.13028352  0.69977390  0.42898955     0.20100
C805        C  0.14274598  0.67882182  0.41546349    -0.13500
C806        C  0.13089545  0.66080006  0.38898561    -0.11800
C807        C  0.14258133  0.71867795  0.45529341     0.01000
C808        C  0.15239487  0.73550022  0.47506332    -0.31800
C809        C  0.09435881  0.64477731  0.34892230     0.02400
C810        C  0.08556524  0.62789795  0.32750936    -0.33500
H811        H  0.07521768  0.68697539  0.37926083     0.13500
H812        H  0.09609433  0.71875572  0.42567218     0.13300
H813        H  0.16160984  0.67644887  0.42524806     0.13100
H814        H  0.14074365  0.64468013  0.37885213     0.12200
C815        C  0.25761217  0.73291915  0.79357004     0.18500
C816        C  0.23368838  0.72602689  0.78315975    -0.10600
C817        C  0.22121363  0.73658298  0.74441473    -0.11500
C818        C  0.23253862  0.75416034  0.71584932     0.20100
C819        C  0.25646412  0.76098780  0.72622053    -0.13500
C820        C  0.26892585  0.75044031  0.76491263    -0.11800
C821        C  0.21996525  0.76479714  0.67523019     0.01000
C822        C  0.21069369  0.77333291  0.63951172    -0.31800
C823        C  0.27026910  0.72266512  0.83448825     0.02400
C824        C  0.28015608  0.71498141  0.87033450    -0.33500
H825        H  0.22465571  0.71258537  0.80508565     0.13500
H826        H  0.20277713  0.73103890  0.73674168     0.13300
H827        H  0.26549782  0.77446117  0.70437179     0.13100
H828        H  0.28734808  0.75602819  0.77260062     0.12200
C829        C  0.23684676  0.76297749  0.28456321     0.18500
C830        C  0.26186584  0.75962809  0.29043020    -0.10600
C831        C  0.27409177  0.74253508  0.26252957    -0.11500
C832        C  0.26127873  0.72859329  0.22898168     0.20100
C833        C  0.23625540  0.73187829  0.22331599    -0.13500
C834        C  0.22404709  0.74896665  0.25115675    -0.11800
C835        C  0.27387156  0.71256994  0.19699032     0.01000
C836        C  0.28254413  0.70183366  0.16353328    -0.31800
C837        C  0.22409888  0.77923305  0.31584430     0.02400
C838        C  0.21449503  0.79001732  0.34821188    -0.33500
H839        H  0.27187083  0.77013534  0.31670989     0.13500
H840        H  0.29348634  0.74036065  0.26676769     0.13300
H841        H  0.22623444  0.72139681  0.19701362     0.13100
H842        H  0.20465835  0.75115763  0.24683141     0.12200
C843        C  0.04179372  0.87988409  0.33062969     0.18500
C844        C  0.05162729  0.89041083  0.37224066    -0.10600
C845        C  0.07009086  0.87866819  0.39783146    -0.11500
C846        C  0.07885127  0.85626679  0.38213679     0.20100
C847        C  0.06890020  0.84563379  0.34072985    -0.13500
C848        C  0.05041523  0.85738591  0.31512041    -0.11800
C849        C  0.09858014  0.84472755  0.40763174     0.01000
C850        C  0.11591855  0.83646573  0.42866179    -0.31800
C851        C  0.02255922  0.89195132  0.30458457     0.02400
C852        C  0.00564017  0.90174022  0.28483765    -0.33500
H853        H  0.04506323  0.90770454  0.38483346     0.13500
H854        H  0.07764695  0.88713911  0.42969155     0.13300
H855        H  0.07552188  0.82837239  0.32809578     0.13100
H856        H  0.04289162  0.84895785  0.28318815     0.12200
C857        C  0.12956772  0.19798566  0.57582908     0.18500
C858        C  0.14144592  0.17622829  0.58604842    -0.10600
C859        C  0.12980995  0.15836685  0.61318531    -0.11500
C860        C  0.10624408  0.16214932  0.63036525     0.20100
C861        C  0.09437894  0.18393571  0.62026697    -0.13500
C862        C  0.10602310  0.20181013  0.59311383    -0.11800
C863        C  0.09433390  0.14347023  0.65777257     0.01000
C864        C  0.08586757  0.12655417  0.67945502    -0.31800
C865        C  0.14170998  0.21668012  0.54889232     0.02400
C866        C  0.15144438  0.23343505  0.52890459    -0.33500
H867        H  0.15968603  0.17310503  0.57317962     0.13500
H868        H  0.13918224  0.14159621  0.62075394     0.13300
H869        H  0.07617780  0.18709049  0.63332230     0.13100
H870        H  0.09670456  0.21862549  0.58571018     0.12200
C871        C  0.19675337  0.12421938  0.93633096     0.18500
C872        C  0.18286118  0.13622301  0.90146930    -0.10600
C873        C  0.16500033  0.12377240  0.87573547    -0.11500
C874        C  0.16091048  0.09919244  0.88453421     0.20100
C875        C  0.17468341  0.08715875  0.91961869    -0.13500
C876        C  0.19260977  0.09964285  0.94540297    -0.11800
C877        C  0.14240831  0.08668562  0.85754111     0.01000
C878        C  0.12602568  0.07854023  0.83365522    -0.31800
C879        C  0.21634815  0.13679947  0.95991191     0.02400
C880        C  0.23408993  0.14742415  0.97406133    -0.33500
H881        H  0.18606112  0.15513324  0.89371623     0.13500
H882        H  0.15447101  0.13328360  0.84874110     0.13300
H883        H  0.17168366  0.06816495  0.92678757     0.13100
H884        H  0.20341668  0.09009088  0.97188783     0.12200
C885        C  0.98570163  0.98158756  0.04198239     0.18500
C886        C  0.01039899  0.97886633  0.03154592    -0.10600
C887        C  0.02080200  0.99130313  0.99273860    -0.11500
C888        C  0.00662484  0.00665703  0.96402749     0.20100
C889        C  0.98188425  0.00929264  0.97427966    -0.13500
C890        C  0.97147368  0.99684902  0.01312145    -0.11800
C891        C  0.01735120  0.01927867  0.92360309     0.01000
C892        C  0.02595268  0.02891649  0.88837809    -0.31800
C893        C  0.97524216  0.96935125  0.08315227     0.02400
C894        C  0.96716851  0.96004878  0.11922585    -0.33500
H895        H  0.02166142  0.96721529  0.05358105     0.13500
H896        H  0.03989212  0.98897120  0.98518011     0.13300
H897        H  0.97064611  0.02099296  0.95229978     0.13100
H898        H  0.95239896  0.99922164  0.02077437     0.12200
C899        C  0.01013227  0.00697363  0.53418309     0.18500
C900        C  0.00435217  0.01635315  0.48877552    -0.10600
C901        C  0.98708496  0.00478565  0.45995509    -0.11500
C902        C  0.97542128  0.98385251  0.47644563     0.20100
C903        C  0.98106442  0.97454512  0.52200864    -0.13500
C904        C  0.99833415  0.98613486  0.55087001    -0.11800
C905        C  0.95913145  0.97123521  0.44467306     0.01000
C906        C  0.94862017  0.96201865  0.41132445    -0.31800
C907        C  0.02718872  0.01921301  0.56498403     0.02400
C908        C  0.03885414  0.02840386  0.59683508    -0.33500
H909        H  0.01316712  0.03255465  0.47568346     0.13500
H910        H  0.98301150  0.01201094  0.42456302     0.13300
H911        H  0.97233786  0.95826921  0.53496266     0.13100
H912        H  0.00250236  0.97885715  0.58617596     0.12200
C913        C  0.91510854  0.13503795  0.62682291     0.18500
C914        C  0.92156203  0.14328126  0.67286229    -0.10600
C915        C  0.93942567  0.13121938  0.69957808    -0.11500
C916        C  0.95089478  0.11078237  0.68051698     0.20100
C917        C  0.94459695  0.10268740  0.63429822    -0.13500
C918        C  0.92675124  0.11474198  0.60760104    -0.11800
C919        C  0.96950622  0.09842023  0.70766969     0.01000
C920        C  0.98618196  0.08841352  0.72771629    -0.31800
C921        C  0.89579602  0.14662481  0.60025189     0.02400
C922        C  0.87858181  0.15488190  0.57886030    -0.33500
H923        H  0.91265018  0.15887418  0.68824582     0.13500
H924        H  0.94422713  0.13777551  0.73511751     0.13300
H925        H  0.95341946  0.08702461  0.61898147     0.13100
H926        H  0.92188120  0.10810461  0.57215232     0.12200
C927        C  0.14547200  0.90823441  0.64186817     0.18500
C928        C  0.12257485  0.90370443  0.66167265    -0.10600
C929        C  0.11017487  0.92194827  0.68617131    -0.11500
C930        C  0.12060205  0.94486533  0.69114333     0.20100
C931        C  0.14375922  0.94927412  0.67227940    -0.13500
C932        C  0.15617431  0.93100274  0.64770488    -0.11800
C933        C  0.10681214  0.96433587  0.71200309     0.01000
C934        C  0.09536790  0.98180897  0.72449499    -0.31800
C935        C  0.15710220  0.88982541  0.61341125     0.02400
C936        C  0.16443055  0.87360348  0.58835384    -0.33500
H937        H  0.11405703  0.88621442  0.65720068     0.13500
H938        H  0.09222834  0.91835698  0.70017764     0.13300
H939        H  0.15194347  0.96698670  0.67552242     0.13100
H940        H  0.17380604  0.93478073  0.63238705     0.12200
C941        C  0.36315738  0.79070745  0.08008741     0.18500
C942        C  0.35965657  0.79244596  0.13000756    -0.10600
C943        C  0.37215937  0.80990241  0.15684208    -0.11500
C944        C  0.38832995  0.82571550  0.13401106     0.20100
C945        C  0.39193598  0.82387991  0.08414432    -0.13500
C946        C  0.37943130  0.80642116  0.05730604    -0.11800
C947        C  0.40023661  0.84458799  0.16117692     0.01000
C948        C  0.40869778  0.86164290  0.18259931    -0.31800
C949        C  0.35048555  0.77242523  0.05268746     0.02400
C950        C  0.34042663  0.75592860  0.03227902    -0.33500
H951        H  0.34723123  0.78035031  0.14814999     0.13500
H952        H  0.36906391  0.81119597  0.19529036     0.13300
H953        H  0.40425166  0.83606765  0.06596349     0.13100
H954        H  0.38241429  0.80521681  0.01881213     0.12200
C955        C  0.50551579  0.00856399  0.54523916     0.18500
C956        C  0.51872634  0.99043342  0.52183075    -0.10600
C957        C  0.50851261  0.97781068  0.48300848    -0.11500
C958        C  0.48494518  0.98314171  0.46726682     0.20100
C959        C  0.47165658  0.00116571  0.49087316    -0.13500
C960        C  0.48187695  0.01379551  0.52972822    -0.11800
C961        C  0.47479245  0.97071303  0.42597361     0.01000
C962        C  0.46699409  0.96118090  0.38985906    -0.31800
C963        C  0.51603747  0.02134120  0.58573278     0.02400
C964        C  0.52467018  0.03085134  0.62111179    -0.33500
H965        H  0.53695470  0.98607093  0.53354465     0.13500
H966        H  0.51904140  0.96400412  0.46510531     0.13300
H967        H  0.45344971  0.00555606  0.47907483     0.13100
H968        H  0.47137800  0.02763895  0.54758511     0.12200
C969        C  0.51294759  0.00512311  0.97491099     0.18500
C970        C  0.51610178  0.98049851  0.98467659    -0.10600
C971        C  0.49893916  0.96802066  0.01211863    -0.11500
C972        C  0.47843689  0.98005707  0.02955701     0.20100
C973        C  0.47514611  0.00461265  0.01932624    -0.13500
C974        C  0.49230760  0.01708761  0.99190106    -0.11800
C975        C  0.46236422  0.96801679  0.06248230     0.01000
C976        C  0.45183961  0.95947426  0.09643552    -0.31800
C977        C  0.52974657  0.01760205  0.94408475     0.02400
C978        C  0.54105605  0.02707273  0.91214648    -0.33500
H979        H  0.53178934  0.97096914  0.97107777     0.13500
H980        H  0.50184494  0.94911659  0.02038136     0.13300
H981        H  0.45954132  0.01418487  0.03318245     0.13100
H982        H  0.48948086  0.03603348  0.98391577     0.12200
C983        C  0.35011627  0.08082220  0.13657159     0.18500
C984        C  0.33644340  0.06382770  0.16226169    -0.10600
C985        C  0.34810766  0.04542309  0.18806997    -0.11500
C986        C  0.37348508  0.04401424  0.18839677     0.20100
C987        C  0.38709912  0.06114819  0.16303599    -0.13500
C988        C  0.37546665  0.07949678  0.13727984    -0.11800
C989        C  0.38561012  0.02407313  0.21153418     0.01000
C990        C  0.39633047  0.00640189  0.22545052    -0.31800
C991        C  0.33844349  0.09953518  0.10889905     0.02400
C992        C  0.33085377  0.11598160  0.08467049    -0.33500
H993        H  0.31682371  0.06464889  0.16191985     0.13500
H994        H  0.33737752  0.03212387  0.20708696     0.13300
H995        H  0.40671008  0.06009635  0.16254176     0.13100
H996        H  0.38622647  0.09249698  0.11750214     0.12200
C997        C  0.29946725  0.86463655  0.44359228     0.18500
C998        C  0.30241611  0.88966153  0.44859278    -0.10600
C999        C  0.32051670  0.90170915  0.42268178    -0.11500
C1000       C  0.33565975  0.88877662  0.39155823     0.20100
C1001       C  0.33287182  0.86373610  0.38703644    -0.13500
C1002       C  0.31481981  0.85171561  0.41290048    -0.11800
C1003       C  0.35391865  0.90095184  0.36361864     0.01000
C1004       C  0.36987730  0.90905332  0.33878654    -0.31800
C1005       C  0.27947894  0.85246805  0.46646049     0.02400
C1006       C  0.26138102  0.84222692  0.47970687    -0.33500
H1007       H  0.29046690  0.89988734  0.47176845     0.13500
H1008       H  0.32249428  0.92108077  0.42643346     0.13300
H1009       H  0.34445535  0.85355434  0.36304565     0.13100
H1010       H  0.31253592  0.83242284  0.40826481     0.12200
C1011       C  0.57810987  0.85587216  0.12650756     0.18500
C1012       C  0.57398457  0.84978030  0.17483733    -0.10600
C1013       C  0.55704850  0.86271063  0.20200204    -0.11500
C1014       C  0.54421256  0.88187370  0.18106308     0.20100
C1015       C  0.54846220  0.88807454  0.13283432    -0.13500
C1016       C  0.56538929  0.87514653  0.10567940    -0.11800
C1017       C  0.52577794  0.89433469  0.20808055     0.01000
C1018       C  0.50884694  0.90381709  0.22795235    -0.31800
C1019       C  0.59610861  0.84306750  0.09892926     0.02400
C1020       C  0.61258074  0.83389453  0.07702843    -0.33500
H1021       H  0.58384982  0.83506252  0.19148904     0.13500
H1022       H  0.55383500  0.85765550  0.23916036     0.13300
H1023       H  0.53856496  0.90276334  0.11614172     0.13100
H1024       H  0.56856043  0.88017869  0.06849153     0.12200
loop_ 
_geom_bond_atom_site_label_1 
_geom_bond_atom_site_label_2 
_geom_bond_distance 
_geom_bond_site_symmetry_2 
_ccdc_geom_bond_type 
O1          Cr19   2.016       .  S
O1            C9   1.266       .  A
O2          Cr19   1.959       .  S
O2            C3   1.254       .  A
C3            O4   1.267       .  A
C3          C976   1.432       .  S
O4          Cr20   2.024       .  S
O5          Cr20   1.972       .  S
O5            C6   1.256       .  A
C6            O7   1.266       .  A
C6          C948   1.441       .  S
O7          Cr21   2.024       .  S
O8          Cr21   1.971       .  S
O8            C9   1.257       .  A
C9         C1018   1.437       .  S
O10         Cr19   1.973       .  S
O10          C18   1.257       .  A
O11         Cr19   2.016       .  S
O11          C12   1.266       .  A
C12          O13   1.256       .  A
C12         C990   1.436   1_565  S
O13         Cr20   1.971       .  S
O14         Cr20   2.019       .  S
O14          C15   1.269       .  A
C15          O16   1.259       .  A
C15        C1004   1.435       .  S
O16         Cr21   1.970       .  S
O17         Cr21   2.029       .  S
O17          C18   1.269       .  A
C18         C962   1.444       .  S
Cr19         O22   1.771       .  S
Cr20         O22   1.772       .  S
Cr21         O22   1.773       .  S
O23         Cr41   2.020       .  S
O23          C31   1.268       .  A
O24         Cr41   1.955       .  S
O24          C25   1.252       .  A
C25          O26   1.267       .  A
C25         C908   1.432       .  S
O26         Cr42   2.029       .  S
O27         Cr42   1.971       .  S
O27          C28   1.256       .  A
C28          O29   1.266       .  A
C28         C864   1.438       .  S
O29         Cr43   2.022       .  S
O30         Cr43   1.971       .  S
O30          C31   1.257       .  A
C31         C920   1.439   1_455  S
O32         Cr41   1.970       .  S
O32          C40   1.256       .  A
O33         Cr41   2.024       .  S
O33          C34   1.268       .  A
C34          O35   1.256       .  A
C34         C934   1.437   1_545  S
O35         Cr42   1.967       .  S
O36         Cr42   2.022       .  S
O36          C37   1.269       .  A
C37          O38   1.260       .  A
C37         C878   1.437       .  S
O38         Cr43   1.973       .  S
O39         Cr43   2.031       .  S
O39          C40   1.269       .  A
C40         C892   1.444       .  S
Cr41         O44   1.769       .  S
Cr42         O44   1.771       .  S
Cr43         O44   1.772       .  S
O45         Cr63   2.017       .  S
O45          C53   1.266       .  A
O46         Cr63   1.957       .  S
O46          C47   1.253       .  A
C47          O48   1.267       .  A
C47         C838   1.430       .  S
O48         Cr64   2.024       .  S
O49         Cr64   1.975       .  S
O49          C50   1.257       .  A
C50          O51   1.266       .  A
C50         C850   1.441       .  S
O51         Cr65   2.021       .  S
O52         Cr65   1.975       .  S
O52          C53   1.258       .  A
C53         C808   1.440       .  S
O54         Cr63   1.970       .  S
O54          C62   1.257       .  A
O55         Cr63   2.017       .  S
O55          C56   1.266       .  A
C56          O57   1.257       .  A
C56        C1006   1.435       .  S
O57         Cr64   1.971       .  S
O58         Cr64   2.020       .  S
O58          C59   1.269       .  A
C59          O60   1.260       .  A
C59         C936   1.437       .  S
O60         Cr65   1.974       .  S
O61         Cr65   2.029       .  S
O61          C62   1.269       .  A
C62         C822   1.442       .  S
Cr63         O66   1.771       .  S
Cr64         O66   1.773       .  S
Cr65         O66   1.772       .  S
O67         Cr85   1.975       .  S
O67          C75   1.257       .  A
O68         Cr85   2.023       .  S
O68          C69   1.267       .  A
C69          O70   1.257       .  A
C69         C780   1.440       .  S
O70         Cr86   1.973       .  S
O71         Cr86   2.026       .  S
O71          C72   1.267       .  A
C72          O73   1.254       .  A
C72         C906   1.432       .  S
O73         Cr87   1.959       .  S
O74         Cr87   2.020       .  S
O74          C75   1.267       .  A
C75         C852   1.441   1_655  S
O76         Cr85   2.030       .  S
O76          C84   1.270       .  A
O77         Cr85   1.974       .  S
O77          C78   1.259       .  A
C78          O79   1.269       .  A
C78         C766   1.438       .  S
O79         Cr86   2.020       .  S
O80         Cr86   1.973       .  S
O80          C81   1.257       .  A
C81          O82   1.267       .  A
C81         C794   1.439   1_565  S
O82         Cr87   2.021       .  S
O83         Cr87   1.971       .  S
O83          C84   1.257       .  A
C84         C894   1.444       .  S
Cr85         O88   1.773       .  S
Cr86         O88   1.773       .  S
Cr87         O88   1.771       .  S
O89        Cr107   1.973       .  S
O89          C97   1.257       .  A
O90        Cr107   2.020       .  S
O90          C91   1.265       .  A
C91          O92   1.256       .  A
C91         C922   1.440       .  S
O92        Cr108   1.974       .  S
O93        Cr108   2.031       .  S
O93          C94   1.269       .  A
C94          O95   1.253       .  A
C94         C740   1.434       .  S
O95        Cr109   1.956       .  S
O96        Cr109   2.016       .  S
O96          C97   1.266       .  A
C97         C752   1.438       .  S
O98        Cr107   2.028       .  S
O98         C106   1.269       .  A
O99        Cr107   1.972       .  S
O99         C100   1.260       .  A
C100        O101   1.271       .  A
C100        C796   1.440       .  S
O101       Cr108   2.027       .  S
O102       Cr108   1.972       .  S
O102        C103   1.256       .  A
C103        O104   1.266       .  A
C103        C712   1.438       .  S
O104       Cr109   2.018       .  S
O105       Cr109   1.970       .  S
O105        C106   1.257       .  A
C106        C726   1.441       .  S
Cr107       O110   1.773       .  S
Cr108       O110   1.771       .  S
Cr109       O110   1.771       .  S
O111       Cr129   1.972       .  S
O111        C119   1.257       .  A
O112       Cr129   2.024       .  S
O112        C113   1.267       .  A
C113        O114   1.256       .  A
C113        C684   1.440       .  S
O114       Cr130   1.972       .  S
O115       Cr130   2.025       .  S
O115        C116   1.267       .  A
C116        O117   1.253       .  A
C116        C670   1.431       .  S
O117       Cr131   1.958       .  S
O118       Cr131   2.016       .  S
O118        C119   1.266       .  A
C119        C866   1.437       .  S
O120       Cr129   2.031       .  S
O120        C128   1.270       .  A
O121       Cr129   1.974       .  S
O121        C122   1.260       .  A
C122        O123   1.269       .  A
C122        C698   1.438       .  S
O123       Cr130   2.020       .  S
O124       Cr130   1.971       .  S
O124        C125   1.257       .  A
C125        O126   1.266       .  A
C125        C640   1.437       .  S
O126       Cr131   2.020       .  S
O127       Cr131   1.969       .  S
O127        C128   1.257       .  A
C128        C654   1.442       .  S
Cr129       O132   1.773       .  S
Cr130       O132   1.772       .  S
Cr131       O132   1.771       .  S
O133       Cr151   1.975       .  S
O133        C141   1.258       .  A
O134       Cr151   2.022       .  S
O134        C135   1.266       .  A
C135        O136   1.256       .  A
C135        C810   1.440       .  S
O136       Cr152   1.972       .  S
O137       Cr152   2.029       .  S
O137        C138   1.269       .  A
C138        O139   1.254       .  A
C138        C612   1.434       .  S
O139       Cr153   1.958       .  S
O140       Cr153   2.019       .  S
O140        C141   1.267       .  A
C141        C586   1.440   1_455  S
O142       Cr151   2.027       .  S
O142        C150   1.269       .  A
O143       Cr151   1.970       .  S
O143        C144   1.259       .  A
C144        O145   1.269       .  A
C144        C628   1.436       .  S
O145       Cr152   2.022       .  S
O146       Cr152   1.971       .  S
O146        C147   1.256       .  A
C147        O148   1.266       .  A
C147        C696   1.438       .  S
O148       Cr153   2.020       .  S
O149       Cr153   1.970       .  S
O149        C150   1.257       .  A
C150        C600   1.441       .  S
Cr151       O154   1.773       .  S
Cr152       O154   1.771       .  S
Cr153       O154   1.770       .  S
O155       Cr173   2.020       .  S
O155        C163   1.267       .  A
O156       Cr173   1.958       .  S
O156        C157   1.253       .  A
C157        O158   1.268       .  A
C157        C614   1.434       .  S
O158       Cr174   2.030       .  S
O159       Cr174   1.974       .  S
O159        C160   1.257       .  A
C160        O161   1.266       .  A
C160        C754   1.438       .  S
O161       Cr175   2.020       .  S
O162       Cr175   1.974       .  S
O162        C163   1.257       .  A
C163        C682   1.441   1_655  S
O164       Cr173   1.968       .  S
O164        C172   1.256       .  A
O165       Cr173   2.021       .  S
O165        C166   1.267       .  A
C166        O167   1.257       .  A
C166        C558   1.438       .  S
O167       Cr174   1.972       .  S
O168       Cr174   2.021       .  S
O168        C169   1.269       .  A
C169        O170   1.260       .  A
C169        C570   1.438       .  S
O170       Cr175   1.975       .  S
O171       Cr175   2.028       .  S
O171        C172   1.268       .  A
C172        C598   1.441       .  S
Cr173       O176   1.770       .  S
Cr174       O176   1.772       .  S
Cr175       O176   1.773       .  S
O177       Cr195   1.974   1_554  S
O177        C185   1.257       .  A
O178       Cr195   2.024   1_554  S
O178        C179   1.267       .  A
C179        O180   1.256       .  A
C179        C544   1.438       .  S
O180       Cr196   1.969       .  S
O181       Cr196   2.024       .  S
O181        C182   1.267       .  A
C182        O183   1.253       .  A
C182        C836   1.430       .  S
O183       Cr197   1.958       .  S
O184       Cr197   2.018       .  S
O184        C185   1.266       .  A
C185        C950   1.440       .  S
O186       Cr195   2.031       .  S
O186        C194   1.270       .  A
O187       Cr195   1.973       .  S
O187        C188   1.259       .  A
C188        O189   1.269       .  A
C188        C530   1.438       .  S
O189       Cr196   2.021   1_556  S
O190       Cr196   1.970       .  S
O190        C191   1.256       .  A
C191        O192   1.266       .  A
C191        C626   1.436       .  S
O192       Cr197   2.020       .  S
O193       Cr197   1.969   1_556  S
O193        C194   1.257       .  A
C194        C824   1.443       .  S
Cr195       O198   1.772   1_556  S
Cr196       O198   1.771       .  S
Cr197       O198   1.771       .  S
O199       Cr217   2.018   1_554  S
O199        C207   1.267   1_554  A
O200       Cr217   1.958       .  S
O200        C201   1.253       .  A
C201        O202   1.268       .  A
C201        C738   1.434       .  S
O202       Cr218   2.030       .  S
O203       Cr218   1.972       .  S
O203        C204   1.257       .  A
C204        O205   1.266       .  A
C204        C488   1.439       .  S
O205       Cr219   2.022   1_556  S
O206       Cr219   1.974       .  S
O206        C207   1.257   1_554  A
C207        C516   1.439       .  S
O208       Cr217   1.968   1_554  S
O208        C216   1.256       .  A
O209       Cr217   2.020       .  S
O209        C210   1.267       .  A
C210        O211   1.256       .  A
C210        C572   1.437       .  S
O211       Cr218   1.970       .  S
O212       Cr218   2.023   1_554  S
O212        C213   1.269       .  A
C213        O214   1.260       .  A
C213        C500   1.438       .  S
O214       Cr219   1.973       .  S
O215       Cr219   2.030       .  S
O215        C216   1.269       .  A
C216        C724   1.441       .  S
Cr217       O220   1.770       .  S
Cr218       O220   1.771       .  S
Cr219       O220   1.773   1_554  S
O221       Cr239   1.971       .  S
O221        C229   1.256       .  A
O222       Cr239   2.018       .  S
O222        C223   1.265       .  A
C223        O224   1.256       .  A
C223        C472   1.435       .  S
O224       Cr240   1.970       .  S
O225       Cr240   2.025       .  S
O225        C226   1.267       .  A
C226        O227   1.253       .  A
C226        C458   1.431       .  S
O227       Cr241   1.958       .  S
O228       Cr241   2.019       .  S
O228        C229   1.267       .  A
C229        C486   1.439       .  S
O230       Cr239   2.027       .  S
O230        C238   1.269       .  A
O231       Cr239   1.972       .  S
O231        C232   1.260       .  A
C232        O233   1.269       .  A
C232        C642   1.438       .  S
O233       Cr240   2.023       .  S
O234       Cr240   1.971       .  S
O234        C235   1.257       .  A
C235        O236   1.267       .  A
C235        C528   1.438       .  S
O236       Cr241   2.021       .  S
O237       Cr241   1.970       .  S
O237        C238   1.257       .  A
C238        C446   1.441       .  S
Cr239       O242   1.773       .  S
Cr240       O242   1.771       .  S
Cr241       O242   1.770       .  S
O243       Cr261   2.017   1_554  S
O243        C251   1.266   1_554  A
O244       Cr261   1.959       .  S
O244        C245   1.254       .  A
C245        O246   1.267       .  A
C245        C668   1.431       .  S
O246       Cr262   2.025       .  S
O247       Cr262   1.973       .  S
O247        C248   1.257       .  A
C248        O249   1.266       .  A
C248        C432   1.438       .  S
O249       Cr263   2.020   1_556  S
O250       Cr263   1.970       .  S
O250        C251   1.256   1_554  A
C251        C474   1.436       .  S
O252       Cr261   1.970   1_554  S
O252        C260   1.257       .  A
O253       Cr261   2.019       .  S
O253        C254   1.266       .  A
C254        O255   1.256       .  A
C254        C880   1.436       .  S
O255       Cr262   1.970       .  S
O256       Cr262   2.019   1_554  S
O256        C257   1.268       .  A
C257        O258   1.259       .  A
C257        C992   1.436       .  S
O258       Cr263   1.971       .  S
O259       Cr263   2.027       .  S
O259        C260   1.268       .  A
C260        C656   1.441       .  S
Cr261       O264   1.770       .  S
Cr262       O264   1.771       .  S
Cr263       O264   1.772   1_554  S
O265       Cr283   1.969       .  S
O265        C273   1.256       .  A
O266       Cr283   2.022       .  S
O266        C267   1.267       .  A
C267        O268   1.257       .  A
C267        C514   1.440       .  S
O268       Cr284   1.974       .  S
O269       Cr284   2.029       .  S
O269        C270   1.268       .  A
C270        O271   1.252       .  A
C270        C978   1.432       .  S
O271       Cr285   1.956       .  S
O272       Cr285   2.018       .  S
O272        C273   1.267       .  A
C273        C430   1.437       .  S
O274       Cr283   2.031       .  S
O274        C282   1.269       .  A
O275       Cr283   1.971       .  S
O275        C276   1.259       .  A
C276        O277   1.270       .  A
C276        C710   1.437       .  S
O277       Cr284   2.023       .  S
O278       Cr284   1.969       .  S
O278        C279   1.257       .  A
C279        O280   1.267       .  A
C279        C418   1.437   1_545  S
O280       Cr285   2.021       .  S
O281       Cr285   1.969       .  S
O281        C282   1.256       .  A
C282        C964   1.444       .  S
Cr283       O286   1.771       .  S
Cr284       O286   1.772       .  S
Cr285       O286   1.770       .  S
O287       Cr305   1.973   1_554  S
O287        C295   1.257       .  A
O288       Cr305   2.025   1_554  S
O288        C289   1.267       .  A
C289        O290   1.255       .  A
C289       C1020   1.437       .  S
O290       Cr306   1.968       .  S
O291       Cr306   2.025       .  S
O291        C292   1.267       .  A
C292        O293   1.253       .  A
C292        C404   1.432       .  S
O293       Cr307   1.959       .  S
O294       Cr307   2.018       .  S
O294        C295   1.266       .  A
C295        C376   1.438       .  S
O296       Cr305   2.032       .  S
O296        C304   1.270       .  A
O297       Cr305   1.973       .  S
O297        C298   1.260       .  A
C298        O299   1.269       .  A
C298        C416   1.437       .  S
O299       Cr306   2.020   1_556  S
O300       Cr306   1.969       .  S
O300        C301   1.256       .  A
C301        O302   1.267       .  A
C301        C768   1.438       .  S
O302       Cr307   2.021       .  S
O303       Cr307   1.972   1_556  S
O303        C304   1.258       .  A
C304        C390   1.446       .  S
Cr305       O308   1.773   1_556  S
Cr306       O308   1.772       .  S
Cr307       O308   1.770       .  S
O309       Cr327   2.019       .  S
O309        C317   1.267       .  A
O310       Cr327   1.956       .  S
O310        C311   1.253       .  A
C311        O312   1.268       .  A
C311        C402   1.432       .  S
O312       Cr328   2.030       .  S
O313       Cr328   1.971       .  S
O313        C314   1.256       .  A
C314        O315   1.268       .  A
C314        C584   1.441       .  S
O315       Cr329   2.027       .  S
O316       Cr329   1.974       .  S
O316        C317   1.257       .  A
C317        C782   1.441       .  S
O318       Cr327   1.970       .  S
O318        C326   1.257       .  A
O319       Cr327   2.022       .  S
O319        C320   1.267       .  A
C320        O321   1.256       .  A
C320        C360   1.437       .  S
O321       Cr328   1.969       .  S
O322       Cr328   2.025       .  S
O322        C323   1.270       .  A
C323        O324   1.260       .  A
C323        C556   1.440       .  S
O324       Cr329   1.973       .  S
O325       Cr329   2.036       .  S
O325        C326   1.271       .  A
C326        C388   1.446       .  S
Cr327       O330   1.771       .  S
Cr328       O330   1.772       .  S
Cr329       O330   1.772       .  S
O331       Cr349   2.018       .  S
O331        C339   1.266       .  A
O332       Cr349   1.958       .  S
O332        C333   1.253       .  A
C333        O334   1.267       .  A
C333        C460   1.431       .  S
O334       Cr350   2.025       .  S
O335       Cr350   1.970       .  S
O335        C336   1.256       .  A
C336        O337   1.267       .  A
C336        C374   1.438       .  S
O337       Cr351   2.022       .  S
O338       Cr351   1.974       .  S
O338        C339   1.257       .  A
C339        C542   1.439       .  S
O340       Cr349   1.969       .  S
O340        C348   1.257       .  A
O341       Cr349   2.022       .  S
O341        C342   1.267       .  A
C342        O343   1.256       .  A
C342        C502   1.438       .  S
O343       Cr350   1.970       .  S
O344       Cr350   2.019       .  S
O344        C345   1.268       .  A
C345        O346   1.260       .  A
C345        C362   1.437       .  S
O346       Cr351   1.974       .  S
O347       Cr351   2.028       .  S
O347        C348   1.269       .  A
C348        C444   1.441       .  S
Cr349       O352   1.770       .  S
Cr350       O352   1.772       .  S
Cr351       O352   1.773       .  S
C353        C361   1.442       .  S
C353        C354   1.402       .  A
C353        C358   1.402       .  A
C354        C355   1.401       .  A
C354        H363   1.083       .  S
C355        C356   1.403       .  A
C355        H364   1.084       .  S
C356        C359   1.443       .  S
C356        C357   1.401       .  A
C357        C358   1.399       .  A
C357        H365   1.083       .  S
C358        H366   1.084       .  S
C359        C360   1.208       .  T
C361        C362   1.207       .  T
C367        C375   1.443       .  S
C367        C368   1.403       .  A
C367        C372   1.401       .  A
C368        C369   1.400       .  A
C368        H377   1.084       .  S
C369        C370   1.401       .  A
C369        H378   1.083       .  S
C370        C373   1.443       .  S
C370        C371   1.403       .  A
C371        C372   1.400       .  A
C371        H379   1.083       .  S
C372        H380   1.083       .  S
C373        C374   1.208       .  T
C375        C376   1.208       .  T
C381        C389   1.451       .  S
C381        C382   1.403       .  A
C381        C386   1.403       .  A
C382        C383   1.404       .  A
C382        H391   1.084       .  S
C383        C384   1.404       .  A
C383        H392   1.083       .  S
C384        C387   1.452       .  S
C384        C385   1.403       .  A
C385        C386   1.403       .  A
C385        H393   1.084       .  S
C386        H394   1.083       .  S
C387        C388   1.213       .  T
C389        C390   1.213       .  T
C395        C403   1.439       .  S
C395        C396   1.400       .  A
C395        C400   1.403       .  A
C396        C397   1.400       .  A
C396        H405   1.084       .  S
C397        C398   1.404       .  A
C397        H406   1.083       .  S
C398        C401   1.440       .  S
C398        C399   1.399       .  A
C399        C400   1.398       .  A
C399        H407   1.084       .  S
C400        H408   1.083       .  S
C401        C402   1.205       .  T
C403        C404   1.205       .  T
C409        C417   1.442       .  S
C409        C410   1.401       .  A
C409        C414   1.402       .  A
C410        C411   1.401       .  A
C410        H419   1.083       .  S
C411        C412   1.403       .  A
C411        H420   1.084       .  S
C412        C415   1.442       .  S
C412        C413   1.401       .  A
C413        C414   1.399       .  A
C413        H421   1.083       .  S
C414        H422   1.084       .  S
C415        C416   1.207       .  T
C417        C418   1.207       .  T
C423        C431   1.443       .  S
C423        C424   1.402       .  A
C423        C428   1.402       .  A
C424        C425   1.401       .  A
C424        H433   1.083       .  S
C425        C426   1.403       .  A
C425        H434   1.084       .  S
C426        C429   1.443       .  S
C426        C427   1.401       .  A
C427        C428   1.400       .  A
C427        H435   1.083       .  S
C428        H436   1.084       .  S
C429        C430   1.208       .  T
C431        C432   1.208       .  T
C437        C445   1.446       .  S
C437        C438   1.402       .  A
C437        C442   1.403       .  A
C438        C439   1.401       .  A
C438        H447   1.084       .  S
C439        C440   1.403       .  A
C439        H448   1.083       .  S
C440        C443   1.447       .  S
C440        C441   1.402       .  A
C441        C442   1.402       .  A
C441        H449   1.084       .  S
C442        H450   1.083       .  S
C443        C444   1.210       .  T
C445        C446   1.210       .  T
C451        C459   1.438       .  S
C451        C452   1.400       .  A
C451        C456   1.402       .  A
C452        C453   1.399   1_554  A
C452        H461   1.083       .  S
C453        C454   1.403       .  A
C453        H462   1.084       .  S
C454        C457   1.438       .  S
C454        C455   1.400   1_556  A
C455        C456   1.398       .  A
C455        H463   1.084       .  S
C456        H464   1.084       .  S
C457        C458   1.204       .  T
C459        C460   1.204       .  T
C465        C473   1.441       .  S
C465        C466   1.401       .  A
C465        C470   1.403       .  A
C466        C467   1.398       .  A
C466        H475   1.083       .  S
C467        C468   1.402       .  A
C467        H476   1.084       .  S
C468        C471   1.441       .  S
C468        C469   1.401       .  A
C469        C470   1.401       .  A
C469        H477   1.083       .  S
C470        H478   1.083       .  S
C471        C472   1.206       .  T
C473        C474   1.207       .  T
C479        C487   1.444       .  S
C479        C480   1.402       .  A
C479        C484   1.402       .  A
C480        C481   1.400       .  A
C480        H489   1.084       .  S
C481        C482   1.402       .  A
C481        H490   1.083       .  S
C482        C485   1.444       .  S
C482        C483   1.402       .  A
C483        C484   1.401       .  A
C483        H491   1.083       .  S
C484        H492   1.083       .  S
C485        C486   1.209       .  T
C487        C488   1.208       .  T
C493        C501   1.444       .  S
C493        C494   1.401       .  A
C493        C498   1.404       .  A
C494        C495   1.399       .  A
C494        H503   1.083       .  S
C495        C496   1.402       .  A
C495        H504   1.084       .  S
C496        C499   1.444       .  S
C496        C497   1.402       .  A
C497        C498   1.402       .  A
C497        H505   1.083       .  S
C498        H506   1.083       .  S
C499        C500   1.208       .  T
C501        C502   1.208       .  T
C507        C515   1.445       .  S
C507        C508   1.402       .  A
C507        C512   1.402       .  A
C508        C509   1.401       .  A
C508        H517   1.083       .  S
C509        C510   1.402       .  A
C509        H518   1.084       .  S
C510        C513   1.445       .  S
C510        C511   1.402       .  A
C511        C512   1.401       .  A
C511        H519   1.083       .  S
C512        H520   1.084       .  S
C513        C514   1.209       .  T
C515        C516   1.209       .  T
C521        C529   1.443       .  S
C521        C522   1.403       .  A
C521        C526   1.401       .  A
C522        C523   1.401       .  A
C522        H531   1.083       .  S
C523        C524   1.401       .  A
C523        H532   1.083       .  S
C524        C527   1.444       .  S
C524        C525   1.403       .  A
C525        C526   1.400       .  A
C525        H533   1.083       .  S
C526        H534   1.084       .  S
C527        C528   1.208       .  T
C529        C530   1.208       .  T
C535        C543   1.444       .  S
C535        C536   1.403       .  A
C535        C540   1.401       .  A
C536        C537   1.402       .  A
C536        H545   1.083       .  S
C537        C538   1.402       .  A
C537        H546   1.084       .  S
C538        C541   1.444       .  S
C538        C539   1.402       .  A
C539        C540   1.400       .  A
C539        H547   1.083       .  S
C540        H548   1.084       .  S
C541        C542   1.209       .  T
C543        C544   1.208       .  T
C549        C557   1.444       .  S
C549        C550   1.401       .  A
C549        C554   1.403       .  A
C550        C551   1.400       .  A
C550        H559   1.084       .  S
C551        C552   1.402       .  A
C551        H560   1.083       .  S
C552        C555   1.445       .  S
C552        C553   1.402       .  A
C553        C554   1.402       .  A
C553        H561   1.084       .  S
C554        H562   1.083       .  S
C555        C556   1.209       .  T
C557        C558   1.208       .  T
C563        C571   1.443       .  S
C563        C564   1.401       .  A
C563        C568   1.403       .  A
C564        C565   1.398       .  A
C564        H573   1.083       .  S
C565        C566   1.402       .  A
C565        H574   1.084       .  S
C566        C569   1.443       .  S
C566        C567   1.402       .  A
C567        C568   1.402       .  A
C567        H575   1.083       .  S
C568        H576   1.083       .  S
C569        C570   1.208       .  T
C571        C572   1.207       .  T
C577        C585   1.446       .  S
C577        C578   1.403       .  A
C577        C582   1.402       .  A
C578        C579   1.402       .  A
C578        H587   1.083       .  S
C579        C580   1.402       .  A
C579        H588   1.083       .  S
C580        C583   1.447       .  S
C580        C581   1.403       .  A
C581        C582   1.401       .  A
C581        H589   1.083       .  S
C582        H590   1.083       .  S
C583        C584   1.210       .  T
C585        C586   1.209       .  T
C591        C599   1.446       .  S
C591        C592   1.402   1_455  A
C591        C596   1.403       .  A
C592        C593   1.401   1_554  A
C592        H601   1.083       .  S
C593        C594   1.403       .  A
C593        H602   1.084       .  S
C594        C597   1.446       .  S
C594        C595   1.402   1_655  A
C595        C596   1.401   1_556  A
C595        H603   1.083       .  S
C596        H604   1.084       .  S
C597        C598   1.209       .  T
C599        C600   1.209       .  T
C605        C613   1.441       .  S
C605        C606   1.400       .  A
C605        C610   1.403       .  A
C606        C607   1.399   1_655  A
C606        H615   1.083       .  S
C607        C608   1.402       .  A
C607        H616   1.084       .  S
C608        C611   1.441       .  S
C608        C609   1.401   1_455  A
C609        C610   1.400       .  A
C609        H617   1.083   1_655  S
C610        H618   1.084       .  S
C611        C612   1.206       .  T
C613        C614   1.206       .  T
C619        C627   1.442       .  S
C619        C620   1.402       .  A
C619        C624   1.401       .  A
C620        C621   1.401       .  A
C620        H629   1.083       .  S
C621        C622   1.403       .  A
C621        H630   1.083       .  S
C622        C625   1.442       .  S
C622        C623   1.400       .  A
C623        C624   1.398       .  A
C623        H631   1.084       .  S
C624        H632   1.083       .  S
C625        C626   1.207       .  T
C627        C628   1.207       .  T
C633        C641   1.443       .  S
C633        C634   1.401       .  A
C633        C638   1.402       .  A
C634        C635   1.401       .  A
C634        H643   1.083       .  S
C635        C636   1.403       .  A
C635        H644   1.084       .  S
C636        C639   1.443       .  S
C636        C637   1.401       .  A
C637        C638   1.400       .  A
C637        H645   1.083       .  S
C638        H646   1.084       .  S
C639        C640   1.208       .  T
C641        C642   1.208       .  T
C647        C655   1.447       .  S
C647        C648   1.402       .  A
C647        C652   1.403       .  A
C648        C649   1.401       .  A
C648        H657   1.084       .  S
C649        C650   1.402       .  A
C649        H658   1.083       .  S
C650        C653   1.447       .  S
C650        C651   1.404       .  A
C651        C652   1.403       .  A
C651        H659   1.084       .  S
C652        H660   1.083       .  S
C653        C654   1.210       .  T
C655        C656   1.210       .  T
C661        C669   1.438       .  S
C661        C662   1.400       .  A
C661        C666   1.403       .  A
C662        C663   1.398       .  A
C662        H671   1.084       .  S
C663        C664   1.403       .  A
C663        H672   1.083       .  S
C664        C667   1.438       .  S
C664        C665   1.400       .  A
C665        C666   1.398       .  A
C665        H673   1.084       .  S
C666        H674   1.083       .  S
C667        C668   1.205       .  T
C669        C670   1.204       .  T
C675        C683   1.446       .  S
C675        C676   1.403       .  A
C675        C680   1.402       .  A
C676        C677   1.401       .  A
C676        H685   1.083       .  S
C677        C678   1.401       .  A
C677        H686   1.083       .  S
C678        C681   1.446       .  S
C678        C679   1.404       .  A
C679        C680   1.402       .  A
C679        H687   1.083       .  S
C680        H688   1.083       .  S
C681        C682   1.210       .  T
C683        C684   1.209       .  T
C689        C697   1.443       .  S
C689        C690   1.401       .  A
C689        C694   1.403       .  A
C690        C691   1.398       .  A
C690        H699   1.083       .  S
C691        C692   1.402       .  A
C691        H700   1.084       .  S
C692        C695   1.444       .  S
C692        C693   1.402       .  A
C693        C694   1.402       .  A
C693        H701   1.083       .  S
C694        H702   1.084       .  S
C695        C696   1.208       .  T
C697        C698   1.208       .  T
C703        C711   1.443       .  S
C703        C704   1.403       .  A
C703        C708   1.401       .  A
C704        C705   1.402       .  A
C704        H713   1.083       .  S
C705        C706   1.402       .  A
C705        H714   1.084       .  S
C706        C709   1.443       .  S
C706        C707   1.402       .  A
C707        C708   1.399       .  A
C707        H715   1.083       .  S
C708        H716   1.084       .  S
C709        C710   1.207       .  T
C711        C712   1.208       .  T
C717        C725   1.446       .  S
C717        C718   1.403       .  A
C717        C722   1.402       .  A
C718        C719   1.402       .  A
C718        H727   1.083       .  S
C719        C720   1.403       .  A
C719        H728   1.083       .  S
C720        C723   1.446       .  S
C720        C721   1.402       .  A
C721        C722   1.401       .  A
C721        H729   1.083       .  S
C722        H730   1.083       .  S
C723        C724   1.210       .  T
C725        C726   1.210       .  T
C731        C739   1.442       .  S
C731        C732   1.404       .  A
C731        C736   1.399       .  A
C732        C733   1.400       .  A
C732        H741   1.084       .  S
C733        C734   1.400       .  A
C733        H742   1.083       .  S
C734        C737   1.441       .  S
C734        C735   1.404       .  A
C735        C736   1.399       .  A
C735        H743   1.084       .  S
C736        H744   1.083       .  S
C737        C738   1.206       .  T
C739        C740   1.207       .  T
C745        C753   1.443       .  S
C745        C746   1.402       .  A
C745        C750   1.402       .  A
C746        C747   1.400       .  A
C746        H755   1.084       .  S
C747        C748   1.401       .  A
C747        H756   1.083       .  S
C748        C751   1.443       .  S
C748        C749   1.403       .  A
C749        C750   1.401       .  A
C749        H757   1.084       .  S
C750        H758   1.083       .  S
C751        C752   1.208       .  T
C753        C754   1.208       .  T
C759        C767   1.443       .  S
C759        C760   1.401       .  A
C759        C764   1.403       .  A
C760        C761   1.399       .  A
C760        H769   1.083       .  S
C761        C762   1.402       .  A
C761        H770   1.084       .  S
C762        C765   1.443       .  S
C762        C763   1.402       .  A
C763        C764   1.401       .  A
C763        H771   1.083       .  S
C764        H772   1.083       .  S
C765        C766   1.208       .  T
C767        C768   1.208       .  T
C773        C781   1.446       .  S
C773        C774   1.402       .  A
C773        C778   1.403       .  A
C774        C775   1.402       .  A
C774        H783   1.084       .  S
C775        C776   1.403       .  A
C775        H784   1.083       .  S
C776        C779   1.446       .  S
C776        C777   1.402       .  A
C777        C778   1.401       .  A
C777        H785   1.084       .  S
C778        H786   1.083       .  S
C779        C780   1.209       .  T
C781        C782   1.210       .  T
C787        C795   1.445       .  S
C787        C788   1.402       .  A
C787        C792   1.402       .  A
C788        C789   1.403       .  A
C788        H797   1.083       .  S
C789        C790   1.404       .  A
C789        H798   1.083       .  S
C790        C793   1.445       .  S
C790        C791   1.401       .  A
C791        C792   1.399       .  A
C791        H799   1.084       .  S
C792        H800   1.083       .  S
C793        C794   1.209       .  T
C795        C796   1.209       .  T
C801        C809   1.445       .  S
C801        C802   1.402       .  A
C801        C806   1.403       .  A
C802        C803   1.401       .  A
C802        H811   1.083       .  S
C803        C804   1.403       .  A
C803        H812   1.083       .  S
C804        C807   1.445       .  S
C804        C805   1.402       .  A
C805        C806   1.401       .  A
C805        H813   1.083       .  S
C806        H814   1.083       .  S
C807        C808   1.209       .  T
C809        C810   1.209       .  T
C815        C823   1.448       .  S
C815        C816   1.404       .  A
C815        C820   1.402       .  A
C816        C817   1.403       .  A
C816        H825   1.083       .  S
C817        C818   1.403       .  A
C817        H826   1.083       .  S
C818        C821   1.447       .  S
C818        C819   1.403       .  A
C819        C820   1.401       .  A
C819        H827   1.083       .  S
C820        H828   1.083       .  S
C821        C822   1.210       .  T
C823        C824   1.211       .  T
C829        C837   1.437       .  S
C829        C830   1.402       .  A
C829        C834   1.399       .  A
C830        C831   1.399       .  A
C830        H839   1.084       .  S
C831        C832   1.400       .  A
C831        H840   1.083       .  S
C832        C835   1.437       .  S
C832        C833   1.402       .  A
C833        C834   1.397       .  A
C833        H841   1.084       .  S
C834        H842   1.083       .  S
C835        C836   1.204       .  T
C837        C838   1.204       .  T
C843        C851   1.447       .  S
C843        C844   1.402       .  A
C843        C848   1.403       .  A
C844        C845   1.401       .  A
C844        H853   1.083       .  S
C845        C846   1.402       .  A
C845        H854   1.084       .  S
C846        C849   1.446       .  S
C846        C847   1.403       .  A
C847        C848   1.402       .  A
C847        H855   1.083       .  S
C848        H856   1.084       .  S
C849        C850   1.210       .  T
C851        C852   1.210       .  T
C857        C865   1.442       .  S
C857        C858   1.401       .  A
C857        C862   1.403       .  A
C858        C859   1.400       .  A
C858        H867   1.083       .  S
C859        C860   1.402       .  A
C859        H868   1.084       .  S
C860        C863   1.443       .  S
C860        C861   1.401       .  A
C861        C862   1.401       .  A
C861        H869   1.083       .  S
C862        H870   1.084       .  S
C863        C864   1.208       .  T
C865        C866   1.207       .  T
C871        C879   1.442       .  S
C871        C872   1.401       .  A
C871        C876   1.403       .  A
C872        C873   1.398       .  A
C872        H881   1.084       .  S
C873        C874   1.401       .  A
C873        H882   1.084       .  S
C874        C877   1.442       .  S
C874        C875   1.402       .  A
C875        C876   1.402       .  A
C875        H883   1.083       .  S
C876        H884   1.083       .  S
C877        C878   1.207       .  T
C879        C880   1.207       .  T
C885        C893   1.449       .  S
C885        C886   1.403   1_655  A
C885        C890   1.403       .  A
C886        C887   1.402   1_554  A
C886        H895   1.084       .  S
C887        C888   1.403   1_565  A
C887        H896   1.083       .  S
C888        C891   1.449       .  S
C888        C889   1.403   1_455  A
C889        C890   1.403   1_546  A
C889        H897   1.084       .  S
C890        H898   1.083       .  S
C891        C892   1.211       .  T
C893        C894   1.212       .  T
C899        C907   1.440       .  S
C899        C900   1.399       .  A
C899        C904   1.404   1_445  A
C900        C901   1.398   1_455  A
C900        H909   1.083       .  S
C901        C902   1.403   1_545  A
C901        H910   1.084       .  S
C902        C905   1.439       .  S
C902        C903   1.400       .  A
C903        C904   1.400       .  A
C903        H911   1.083       .  S
C904        H912   1.084   1_655  S
C905        C906   1.205       .  T
C907        C908   1.205       .  T
C913        C921   1.445       .  S
C913        C914   1.403       .  A
C913        C918   1.402       .  A
C914        C915   1.402       .  A
C914        H923   1.083       .  S
C915        C916   1.402       .  A
C915        H924   1.084       .  S
C916        C919   1.445       .  S
C916        C917   1.402       .  A
C917        C918   1.400       .  A
C917        H925   1.083       .  S
C918        H926   1.084       .  S
C919        C920   1.209       .  T
C921        C922   1.209       .  T
C927        C935   1.443       .  S
C927        C928   1.402       .  A
C927        C932   1.402       .  A
C928        C929   1.399       .  A
C928        H937   1.084       .  S
C929        C930   1.400       .  A
C929        H938   1.083       .  S
C930        C933   1.443       .  S
C930        C931   1.404       .  A
C931        C932   1.401       .  A
C931        H939   1.084       .  S
C932        H940   1.083       .  S
C933        C934   1.208       .  T
C935        C936   1.208       .  T
C941        C949   1.446       .  S
C941        C942   1.403       .  A
C941        C946   1.402       .  A
C942        C943   1.401       .  A
C942        H951   1.083       .  S
C943        C944   1.402       .  A
C943        H952   1.084       .  S
C944        C947   1.446       .  S
C944        C945   1.403       .  A
C945        C946   1.402       .  A
C945        H953   1.083       .  S
C946        H954   1.084       .  S
C947        C948   1.210       .  T
C949        C950   1.209       .  T
C955        C963   1.449       .  S
C955        C956   1.403   1_545  A
C955        C960   1.403       .  A
C956        C957   1.402       .  A
C956        H965   1.084       .  S
C957        C958   1.403       .  A
C957        H966   1.083       .  S
C958        C961   1.449       .  S
C958        C959   1.403   1_565  A
C959        C960   1.403       .  A
C959        H967   1.084       .  S
C960        H968   1.083       .  S
C961        C962   1.211       .  T
C963        C964   1.211       .  T
C969        C977   1.439       .  S
C969        C970   1.401   1_545  A
C969        C974   1.401       .  A
C970        C971   1.399   1_556  A
C970        H979   1.083       .  S
C971        C972   1.401       .  A
C971        H980   1.084       .  S
C972        C975   1.439       .  S
C972        C973   1.401   1_565  A
C973        C974   1.399   1_554  A
C973        H981   1.083       .  S
C974        H982   1.084       .  S
C975        C976   1.205       .  T
C977        C978   1.205       .  T
C983        C991   1.441       .  S
C983        C984   1.402       .  A
C983        C988   1.401       .  A
C984        C985   1.401       .  A
C984        H993   1.084       .  S
C985        C986   1.403       .  A
C985        H994   1.083       .  S
C986        C989   1.441       .  S
C986        C987   1.401       .  A
C987        C988   1.398       .  A
C987        H995   1.084       .  S
C988        H996   1.083       .  S
C989        C990   1.207       .  T
C991        C992   1.206       .  T
C997       C1005   1.441       .  S
C997        C998   1.403       .  A
C997       C1002   1.401       .  A
C998        C999   1.401       .  A
C998       H1007   1.083       .  S
C999       C1000   1.401       .  A
C999       H1008   1.084       .  S
C1000      C1003   1.440       .  S
C1000      C1001   1.401       .  A
C1001      C1002   1.398       .  A
C1001      H1009   1.083       .  S
C1002      H1010   1.084       .  S
C1003      C1004   1.206       .  T
C1005      C1006   1.206       .  T
C1011      C1019   1.443       .  S
C1011      C1012   1.402       .  A
C1011      C1016   1.402       .  A
C1012      C1013   1.400       .  A
C1012      H1021   1.083       .  S
C1013      C1014   1.401       .  A
C1013      H1022   1.084       .  S
C1014      C1017   1.442       .  S
C1014      C1015   1.402       .  A
C1015      C1016   1.400       .  A
C1015      H1023   1.083       .  S
C1016      H1024   1.084       .  S
C1017      C1018   1.207       .  T
C1019      C1020   1.208       .  T
