geometry optimzed in LAMMPS
_audit_creation_date              2020-12-01 
_audit_creation_method            'lammps2cif' 
_symmetry_space_group_name_H-M    'P1' 
_symmetry_Int_Tables_number       1 
_symmetry_cell_setting            triclinic 
loop_ 
_symmetry_equiv_pos_as_xyz 
  x,y,z 
_cell_length_a                    52.06909767 
_cell_length_b                    51.82583171139799 
_cell_length_c                    26.247674179715307 
_cell_angle_alpha                 90.12241410810448 
_cell_angle_beta                  90.12101351782884 
_cell_angle_gamma                 90.0957983330187 
loop_ 
_atom_site_label 
_atom_site_type_symbol 
_atom_site_fract_x 
_atom_site_fract_y 
_atom_site_fract_z 
_atom_site_charge 
O1          O  0.39726812  0.96471261  0.26288626    -0.81800
C2          C  0.48574589  0.90331066  0.25963652     0.97600
O3          O  0.48639180  0.92763331  0.26512268    -0.70900
O4          O  0.45984572  0.94458158  0.18921467    -0.74500
Al5        Al  0.45804129  0.95181057  0.25844829     1.49000
C6          C  0.44180250  0.94799484  0.15824685     0.92800
O7          O  0.40762077  0.89978568  0.20315044    -0.80700
O8          O  0.40979597  0.91169201  0.35104230    -0.74300
Al9        Al  0.40380657  0.93190132  0.23476291     1.90100
O10         O  0.41834137  0.87783415  0.27103011    -0.73400
O11         O  0.45896657  0.92207098  0.35911952    -0.73200
O12         O  0.46635222  0.89099831  0.27398082    -0.78900
O13         O  0.45882738  0.96126015  0.32724664    -0.77100
O14         O  0.43325394  0.92887234  0.26818448    -1.13200
O15         O  0.43515352  0.98082816  0.24689316    -0.72400
C16         C  0.41112445  0.98385632  0.25181507     0.98300
C17         C  0.40989081  0.87851079  0.22566894     0.94700
Al18       Al  0.43809462  0.90275624  0.31063743     1.55600
O19         O  0.41862257  0.94662522  0.17282202    -0.77000
C20         C  0.46314248  0.94609226  0.36355151     0.98900
C21         C  0.38699971  0.91195942  0.33501962     0.93800
O22         O  0.38256658  0.91739853  0.28870793    -0.82300
O23         O  0.10149088  0.02505521  0.76108567    -0.81800
C24         C  0.01165983  0.08350957  0.75570128     0.97600
O25         O  0.01158366  0.05929711  0.76253552    -0.70900
O26         O  0.03814537  0.04299100  0.68618226    -0.74500
Al27       Al  0.04046827  0.03592985  0.75592260     1.49000
C28         C  0.05617455  0.03814775  0.65612019     0.92800
O29         O  0.08873775  0.08885759  0.69869085    -0.80700
O30         O  0.08825051  0.07809787  0.84740939    -0.74300
Al31       Al  0.09387042  0.05714662  0.73129050     1.90100
O32         O  0.07828774  0.11098473  0.76679092    -0.73400
O33         O  0.03934567  0.06635080  0.85600245    -0.73200
O34         O  0.03059497  0.09657625  0.77026779    -0.78900
O35         O  0.04023927  0.02687047  0.82506384    -0.77100
O36         O  0.06463653  0.05960645  0.76511357    -1.13200
O37         O  0.06425110  0.00731440  0.74475183    -0.72400
C38         C  0.08840740  0.00531024  0.75015591     0.98300
C39         C  0.08636302  0.11021601  0.72122315     0.94700
Al40       Al  0.05936943  0.08590109  0.80708401     1.55600
O41         O  0.07933999  0.04062341  0.67037681    -0.77000
C42         C  0.03593967  0.04226205  0.86115439     0.98900
C43         C  0.11087965  0.07825607  0.83052855     0.93800
O44         O  0.11489452  0.07288665  0.78407098    -0.82300
O45         O  0.22622344  0.83894059  0.51464719    -0.81800
C46         C  0.15992017  0.75412129  0.52320072     0.97600
O47         O  0.18325115  0.75299038  0.53738312    -0.70900
O48         O  0.20720355  0.77081758  0.45967719    -0.74500
Al49       Al  0.20985409  0.77928769  0.52812743     1.49000
C50         C  0.21624440  0.78481560  0.42543226     0.92800
O51         O  0.16558886  0.82557867  0.44081894    -0.80700
O52         O  0.16865757  0.83591973  0.59098461    -0.74300
Al53       Al  0.19571842  0.83088773  0.47974053     1.90100
O54         O  0.13940758  0.82401824  0.50586639    -0.73400
O55         O  0.17311999  0.78648717  0.61576322    -0.73200
O56         O  0.14819940  0.77531826  0.52509189    -0.78900
O57         O  0.21422382  0.78532972  0.59772975    -0.77100
O58         O  0.18841254  0.80529596  0.52163560    -1.13200
O59         O  0.24131595  0.79966628  0.51777026    -0.72400
C60         C  0.24513026  0.82388192  0.51631393     0.98300
C61         C  0.14326815  0.82798640  0.45866206     0.94700
Al62       Al  0.15952776  0.80542061  0.55696489     1.55600
O63         O  0.21437317  0.80929367  0.42912011    -0.77000
C64         C  0.19625678  0.78251813  0.62897293     0.98900
C65         C  0.17172375  0.85706659  0.56816873     0.93800
O66         O  0.17929086  0.85745995  0.52200254    -0.82300
O67         O  0.89133345  0.92023559  0.26540631    -0.81800
C68         C  0.99542819  0.90763386  0.26293197     0.97600
O69         O  0.97535432  0.89501320  0.25330475    -0.70900
O70         O  0.92750446  0.88146042  0.26681450    -0.74500
Al71       Al  0.94448803  0.90715377  0.22514850     1.49000
C72         C  0.92234488  0.88068066  0.31394929     0.92800
O73         O  0.93626553  0.94821052  0.37128874    -0.80700
O74         O  0.94525226  0.98430208  0.29340743    -0.74300
Al75       Al  0.91655779  0.93396689  0.31364862     1.90100
O76         O  0.97528832  0.94787478  0.34054837    -0.73400
O77         O  0.96234910  0.96598016  0.20664507    -0.73200
O78         O  0.99531683  0.93199170  0.25740439    -0.78900
O79         O  0.96205368  0.92735118  0.17301523    -0.77100
O80         O  0.94272050  0.93237613  0.27076177    -1.13200
O81         O  0.91307524  0.91673829  0.19421922    -0.72400
C82         C  0.89187832  0.91639633  0.21749320     0.98300
C83         C  0.96040430  0.94997451  0.37762449     0.94700
Al84       Al  0.96749856  0.95573962  0.27387792     1.55600
O85         O  0.92344524  0.90096002  0.34044059    -0.77000
C86         C  0.96529546  0.95152700  0.16868162     0.98900
C87         C  0.92101519  0.98662488  0.29530253     0.93800
O88         O  0.90695646  0.96693688  0.29120260    -0.82300
O89         O  0.82390646  0.13115763  0.50860424    -0.81800
C90         C  0.83233183  0.23632726  0.52462002     0.97600
O91         O  0.84622698  0.21728366  0.51296957    -0.70900
O92         O  0.86230908  0.16901861  0.51606531    -0.74500
Al93       Al  0.83522505  0.18687901  0.47878423     1.49000
C94         C  0.86351317  0.16154255  0.56197437     0.92800
O95         O  0.79726728  0.16995189  0.62347691    -0.80700
O96         O  0.75941302  0.18126023  0.55223589    -0.74300
Al97       Al  0.81047609  0.15329475  0.56204493     1.90100
O98         O  0.79582287  0.21060831  0.60034348    -0.73400
O99         O  0.77537180  0.20165377  0.46605821    -0.73200
O100        O  0.80825801  0.23466353  0.51835882    -0.78900
O101        O  0.81321804  0.20587846  0.43087255    -0.77100
O102        O  0.81072115  0.18155028  0.52449954    -1.13200
O103        O  0.82689296  0.15651406  0.44207996    -0.72400
C104        C  0.82805442  0.13422187  0.46125062     0.98300
C105        C  0.79456161  0.19368817  0.63426908     0.94700
Al106      Al  0.78657966  0.20511369  0.53311565     1.55600
O107        O  0.84345577  0.15980474  0.58837506    -0.77000
C108        C  0.78886784  0.20769500  0.42823563     0.98900
C109        C  0.75755013  0.15691179  0.55042309     0.93800
O110        O  0.77715221  0.14364476  0.54014516    -0.82300
O111        O  0.17311717  0.36274119  0.50501615    -0.81800
C112        C  0.16551957  0.25798712  0.52706601     0.97600
O113        O  0.15146710  0.27684278  0.51518447    -0.70900
O114        O  0.13553228  0.32508563  0.51745637    -0.74500
Al115      Al  0.16176092  0.30653438  0.47902317     1.49000
C116        C  0.13514559  0.33362886  0.56282951     0.92800
O117        O  0.20301962  0.32553249  0.62087567    -0.80700
O118        O  0.23857887  0.31316587  0.54609963    -0.74300
Al119      Al  0.18797506  0.34127619  0.55882535     1.90100
O120        O  0.20351131  0.28458695  0.59974103    -0.73400
O121        O  0.22120380  0.29130764  0.46346802    -0.73200
O122        O  0.18947515  0.25940507  0.51972915    -0.78900
O123        O  0.18286627  0.28670305  0.43050942    -0.77100
O124        O  0.18698517  0.31243001  0.52296784    -1.13200
O125        O  0.16944072  0.33625420  0.44018382    -0.72400
C126        C  0.16848592  0.35888499  0.45790966     0.98300
C127        C  0.20515152  0.30183683  0.63308043     0.94700
Al128      Al  0.21129568  0.28902304  0.53129444     1.55600
O129        O  0.15565222  0.33521571  0.58817313    -0.77000
C130        C  0.20716983  0.28475423  0.42665690     0.98900
C131        C  0.24027316  0.33730385  0.54004249     0.93800
O132        O  0.22030029  0.35041592  0.53264626    -0.82300
O133        O  0.10483248  0.57173585  0.27075360    -0.81800
C134        C  0.00100654  0.58546880  0.27167165     0.97600
O135        O  0.02110224  0.59838408  0.26461589    -0.70900
O136        O  0.06918343  0.61181348  0.27893804    -0.74500
Al137      Al  0.05147913  0.58728542  0.23431253     1.49000
C138        C  0.07391968  0.61083346  0.32630397     0.92800
O139        O  0.06011872  0.54291179  0.37541668    -0.80700
O140        O  0.05109971  0.50761899  0.29015177    -0.74300
Al141      Al  0.07983172  0.55752124  0.31861987     1.90100
O142        O  0.02122790  0.54175193  0.34356037    -0.73400
O143        O  0.03378595  0.52928436  0.20627771    -0.73200
O144        O  0.00108002  0.56128645  0.26312758    -0.78900
O145        O  0.03336713  0.56925864  0.17932982    -0.77100
O146        O  0.05348989  0.56039577  0.27614996    -1.13200
O147        O  0.08206125  0.57837382  0.20149300    -0.72400
C148        C  0.10358235  0.57675339  0.22335592     0.98300
C149        C  0.03596880  0.54124593  0.38131971     0.94700
Al150      Al  0.02883244  0.53680186  0.27549845     1.55600
O151        O  0.07342333  0.58959760  0.34903353    -0.77000
C152        C  0.03135692  0.54525024  0.17066905     0.98900
C153        C  0.07530269  0.50526829  0.29278826     0.93800
O154        O  0.08932320  0.52502231  0.29345236    -0.82300
O155        O  0.89438812  0.47093659  0.76587962    -0.81800
C156        C  0.98539885  0.41388032  0.74943042     0.97600
O157        O  0.98485777  0.43812595  0.75526164    -0.70900
O158        O  0.95528005  0.45336883  0.68270209    -0.74500
Al159      Al  0.95545887  0.46081608  0.75242372     1.49000
C160        C  0.93635129  0.45843338  0.65504596     0.92800
O161        O  0.90610470  0.40753192  0.70014554    -0.80700
O162        O  0.91109275  0.41776612  0.84914595    -0.74300
Al163      Al  0.90147220  0.43900896  0.73447507     1.90100
O164        O  0.91934842  0.38515046  0.76604949    -0.73400
O165        O  0.96017640  0.43097496  0.85273373    -0.73200
O166        O  0.96702375  0.40049641  0.76542497    -0.78900
O167        O  0.95846971  0.47017538  0.82112277    -0.77100
O168        O  0.93190757  0.43690475  0.76468506    -1.13200
O169        O  0.93086857  0.48903054  0.74515732    -0.72400
C170        C  0.90697446  0.49090044  0.75460955     0.98300
C171        C  0.90989357  0.38606655  0.72131578     0.94700
Al172      Al  0.93898749  0.41069954  0.80539867     1.55600
O173        O  0.91370312  0.45621812  0.67229225    -0.77000
C174        C  0.96403019  0.45515020  0.85708286     0.98900
C175        C  0.88798292  0.41677130  0.83512494     0.93800
O176        O  0.88220193  0.42240746  0.78940123    -0.82300
O177        O  0.31053147  0.62786959  0.00540930    -0.81800
C178        C  0.32092333  0.73480408  0.03767628     0.97600
O179        O  0.33042653  0.72308384  0.99986759    -0.70900
O180        O  0.35784952  0.68379504  0.03055723    -0.74500
Al181      Al  0.33008054  0.68710594  0.98293223     1.49000
C182        C  0.36180748  0.66542508  0.06095345     0.92800
O183        O  0.30722167  0.66809822  0.12822601    -0.80700
O184        O  0.25449241  0.67362291  0.02042513    -0.74300
Al185      Al  0.30831681  0.64951884  0.06451123     1.90100
O186        O  0.27457144  0.69242066  0.10739935    -0.73400
O187        O  0.27671766  0.71199809  0.97107513    -0.73200
O188        O  0.30082917  0.72663066  0.05884510    -0.78900
O189        O  0.30583488  0.69139662  0.92783963    -0.77100
O190        O  0.30586920  0.67847029  0.02807826    -1.13200
O191        O  0.33489908  0.65309975  0.95886462    -0.72400
C192        C  0.32507271  0.63131050  0.96737789     0.98300
C193        C  0.28963511  0.68367238  0.14029398     0.94700
Al194      Al  0.27909778  0.69942211  0.03813180     1.55600
O195        O  0.34431242  0.64971014  0.07174154    -0.77000
C196        C  0.28536743  0.70441111  0.92915242     0.98900
C197        C  0.25300584  0.65216733  0.04313192     0.93800
O198        O  0.27232841  0.64269720  0.06542946    -0.82300
O199        O  0.72207262  0.34193214  0.01324137    -0.81800
C200        C  0.66181472  0.25132090  0.01786916     0.97600
O201        O  0.68539172  0.25193058  0.03071012    -0.70900
O202        O  0.70678670  0.27366369  0.95355341    -0.74500
Al203      Al  0.70974704  0.28062906  0.02248120     1.49000
C204        C  0.71405342  0.28932067  0.92038642     0.92800
O205        O  0.66053909  0.32621451  0.94316881    -0.80700
O206        O  0.66541042  0.33175170  0.09320637    -0.74300
Al207      Al  0.69114620  0.33238709  0.98039265     1.90100
O208        O  0.63595182  0.32032958  0.00971343    -0.73400
O209        O  0.67396614  0.28270819  0.11230695    -0.73200
O210        O  0.64858483  0.27158469  0.02154991    -0.78900
O211        O  0.71472887  0.28551464  0.09226742    -0.77100
O212        O  0.68638477  0.30506231  0.01968053    -1.13200
O213        O  0.73927086  0.30350254  0.01184770    -0.72400
C214        C  0.74169526  0.32788097  0.01146910     0.98300
C215        C  0.63864035  0.32688987  0.96355209     0.94700
Al216      Al  0.65812043  0.30178393  0.05640686     1.55600
O217        O  0.71005472  0.31343921  0.92623149    -0.77000
C218        C  0.69750741  0.28120616  0.12454152     0.98900
C219        C  0.66759131  0.35387488  0.07407033     0.93800
O220        O  0.67409114  0.35641256  0.02746685    -0.82300
O221        O  0.38848240  0.41868877  0.76069466    -0.81800
C222        C  0.49314891  0.40930304  0.76792888     0.97600
O223        O  0.47374345  0.39560197  0.75821288    -0.70900
O224        O  0.42586127  0.37961783  0.76690890    -0.74500
Al225      Al  0.44315954  0.40659340  0.72689659     1.49000
C226        C  0.41951796  0.37906843  0.81363592     0.92800
O227        O  0.43000738  0.44602455  0.87256302    -0.80700
O228        O  0.43980999  0.48331756  0.79770646    -0.74300
Al229      Al  0.41188972  0.43236072  0.81223398     1.90100
O230        O  0.46972513  0.44719335  0.84503901    -0.73400
O231        O  0.45855207  0.46661829  0.71074368    -0.73200
O232        O  0.49188487  0.43353491  0.76193905    -0.78900
O233        O  0.46094741  0.42822184  0.67645764    -0.77100
O234        O  0.43918571  0.43163502  0.77229133    -1.13200
O235        O  0.41279692  0.41515471  0.69275036    -0.72400
C236        C  0.39092578  0.41520371  0.71295041     0.98300
C237        C  0.45402151  0.44763843  0.88112728     0.94700
Al238      Al  0.46303718  0.45581313  0.77809605     1.55600
O239        O  0.41864144  0.39970084  0.83877829    -0.77000
C240        C  0.46246898  0.45266767  0.67227489     0.98900
C241        C  0.41556145  0.48515554  0.79714182     0.93800
O242        O  0.40208977  0.46531098  0.79003311    -0.82300
O243        O  0.27522790  0.14955429  0.00973767    -0.81800
C244        C  0.33876420  0.23588259  0.02004530     0.97600
O245        O  0.31500518  0.23721667  0.03121114    -0.70900
O246        O  0.29328233  0.21740410  0.95319798    -0.74500
Al247      Al  0.28914166  0.21013654  0.02166646     1.49000
C248        C  0.28610022  0.20254439  0.91844229     0.92800
O249        O  0.33729890  0.16420876  0.94302016    -0.80700
O250        O  0.32961307  0.15499716  0.09283928    -0.74300
Al251      Al  0.30623131  0.15815907  0.97813804     1.90100
O252        O  0.36098846  0.16713832  0.01192593    -0.73400
O253        O  0.32305225  0.20448348  0.11542844    -0.73200
O254        O  0.35068774  0.21525231  0.02749119    -0.78900
O255        O  0.28283181  0.20555256  0.09098490    -0.77100
O256        O  0.31136465  0.18452756  0.01976942    -1.13200
O257        O  0.25878814  0.18836214  0.00995093    -0.72400
C258        C  0.25582341  0.16398623  0.00974432     0.98300
C259        C  0.35891691  0.16246985  0.96461704     0.94700
Al260      Al  0.33896308  0.18550244  0.05918518     1.55600
O261        O  0.28822001  0.17821747  0.92415630    -0.77000
C262        C  0.29944812  0.20794251  0.12527031     0.98900
C263        C  0.32853188  0.13348602  0.07031336     0.93800
O264        O  0.32235910  0.13258253  0.02331252    -0.82300
O265        O  0.60704038  0.06719846  0.77220538    -0.81800
C266        C  0.50345016  0.08105679  0.76635774     0.97600
O267        O  0.52384738  0.09385954  0.76106610    -0.70900
O268        O  0.57214081  0.10584573  0.77911148    -0.74500
Al269      Al  0.55457998  0.08218237  0.73196142     1.49000
C270        C  0.57625582  0.10430411  0.82684823     0.92800
O271        O  0.56035174  0.03399519  0.87050454    -0.80700
O272        O  0.55170008  0.00293029  0.78935169    -0.74300
Al273      Al  0.58106643  0.05137930  0.81680787     1.90100
O274        O  0.52203394  0.03971146  0.83902805    -0.73400
O275        O  0.53641978  0.02427691  0.70434892    -0.73200
O276        O  0.50337835  0.05718148  0.75586090    -0.78900
O277        O  0.53687220  0.06401893  0.67575952    -0.77100
O278        O  0.55549511  0.05533858  0.77321565    -1.13200
O279        O  0.58565869  0.07283431  0.70078811    -0.72400
C280        C  0.60667003  0.07230738  0.72467633     0.98300
C281        C  0.53604230  0.03186744  0.87443639     0.94700
Al282      Al  0.53031330  0.03267212  0.77191447     1.55600
O283        O  0.57409164  0.08297427  0.84938079    -0.77000
C284        C  0.53387642  0.03989921  0.66822020     0.98900
C285        C  0.57592614  0.00015644  0.79083954     0.93800
O286        O  0.59031470  0.01964900  0.78795549    -0.82300
O287        O  0.67164977  0.85842730  0.00907853    -0.81800
C288        C  0.66144897  0.75429202  0.02310174     0.97600
O289        O  0.64862290  0.77335633  0.00852927    -0.70900
O290        O  0.63328802  0.82083629  0.01367842    -0.74500
Al291      Al  0.66055018  0.80317975  0.97707459     1.49000
C292        C  0.63169922  0.82765873  0.05995307     0.92800
O293        O  0.69702111  0.81938702  0.12475398    -0.80700
O294        O  0.73536768  0.80763380  0.05336971    -0.74300
Al295      Al  0.68459019  0.83603800  0.06262572     1.90100
O296        O  0.69820377  0.77880104  0.10107316    -0.73400
O297        O  0.72009579  0.78607739  0.96664167    -0.73200
O298        O  0.68573591  0.75465303  0.01939364    -0.78900
O299        O  0.68231776  0.78435720  0.93012370    -0.77100
O300        O  0.68453744  0.80779052  0.02436740    -1.13200
O301        O  0.67013658  0.83314031  0.94223619    -0.72400
C302        C  0.66835064  0.85529726  0.96144243     0.98300
C303        C  0.69801855  0.79555803  0.13549833     0.94700
Al304      Al  0.70811823  0.78375956  0.03401072     1.55600
O305        O  0.65151991  0.82946171  0.08711721    -0.77000
C306        C  0.70649319  0.78180346  0.92775398     0.98900
C307        C  0.73752304  0.83202135  0.05230425     0.93800
O308        O  0.71804688  0.84557866  0.04259875    -0.82300
O309        O  0.76683440  0.65092281  0.51600592    -0.81800
C310        C  0.83315377  0.73595998  0.49929163     0.97600
O311        O  0.80917054  0.73825175  0.50646805    -0.70900
O312        O  0.78682840  0.71206999  0.43605844    -0.74500
Al313      Al  0.78279657  0.71167617  0.50669060     1.49000
C314        C  0.77739051  0.69463091  0.40884838     0.92800
O315        O  0.82813713  0.65890942  0.44276844    -0.80700
O316        O  0.82243485  0.66054657  0.59328993    -0.74300
Al317      Al  0.79772665  0.65599139  0.48074370     1.90100
O318        O  0.85336164  0.66700394  0.50810636    -0.73400
O319        O  0.81660236  0.71040308  0.60313333    -0.73200
O320        O  0.84447291  0.71594033  0.51367500    -0.78900
O321        O  0.77678796  0.71451389  0.57665905    -0.77100
O322        O  0.80406211  0.68537024  0.51355551    -1.13200
O323        O  0.75186911  0.69002947  0.50366292    -0.72400
C324        C  0.74803202  0.66601157  0.51096481     0.98300
C325        C  0.85030475  0.65989926  0.46209275     0.94700
Al326      Al  0.83198254  0.68834293  0.55177518     1.55600
O327        O  0.77901947  0.67128350  0.42281906    -0.77000
C328        C  0.79347577  0.71680796  0.61094989     0.98900
C329        C  0.82062483  0.63777857  0.57724065     0.93800
O330        O  0.81417920  0.63368410  0.53116874    -0.82300
O331        O  0.59682124  0.52334357  0.26144822    -0.81800
C332        C  0.50693692  0.58261071  0.24954401     0.97600
O333        O  0.50677449  0.55835611  0.25656422    -0.70900
O334        O  0.53441074  0.54083890  0.18270071    -0.74500
Al335      Al  0.53572420  0.53443892  0.25269507     1.49000
C336        C  0.55262563  0.53514719  0.15374241     0.92800
O337        O  0.58492831  0.58649841  0.19593527    -0.80700
O338        O  0.58158877  0.57624680  0.34516214    -0.74300
Al339      Al  0.58958927  0.55509356  0.23010254     1.90100
O340        O  0.57444389  0.60914540  0.26360377    -0.73400
O341        O  0.53209766  0.56613979  0.35001601    -0.73200
O342        O  0.52630507  0.59555638  0.26261625    -0.78900
O343        O  0.53457726  0.52615472  0.32249206    -0.77100
O344        O  0.55981401  0.55799205  0.26196413    -1.13200
O345        O  0.55975829  0.50549612  0.24430539    -0.72400
C346        C  0.58390556  0.50346407  0.25125474     0.98300
C347        C  0.58252309  0.60791763  0.21810577     0.94700
Al348      Al  0.55396163  0.58466820  0.30238192     1.55600
O349        O  0.57572399  0.53768329  0.16880728    -0.77000
C350        C  0.52922015  0.54210610  0.35706613     0.98900
C351        C  0.60457843  0.57677441  0.33067357     0.93800
O352        O  0.60986572  0.57148745  0.28442556    -0.82300
C353        C  0.69669935  0.61523128  0.49277575    -0.22500
C354        C  0.68179824  0.62715677  0.45518618     0.09500
C355        C  0.68522954  0.65370730  0.44540702     0.09900
C356        C  0.70514000  0.66711817  0.47010863    -0.17400
C357        C  0.72204998  0.65452161  0.50364292    -0.27800
C358        C  0.71646647  0.62868082  0.51790452     0.18200
C359        C  0.66309365  0.61147510  0.42563005     0.12200
C360        C  0.66849527  0.66765000  0.40750926    -0.12200
H361        H  0.70865555  0.68702987  0.45995696     0.12500
C362        C  0.73102428  0.61461208  0.55901590    -0.23000
H363        H  0.69325800  0.59509062  0.50176930     0.08100
C364        C  0.66932036  0.60121357  0.37741686     0.04500
C365        C  0.65020456  0.58881724  0.34841194    -0.20200
C366        C  0.62495638  0.58604394  0.36671463    -0.12500
C367        C  0.61949054  0.59452513  0.41737213     0.13200
C368        C  0.63862893  0.60729307  0.44570549    -0.23000
C369        C  0.69615628  0.60349055  0.35652546    -0.06000
H370        H  0.65492998  0.58192360  0.31058438     0.14700
C371        C  0.59367157  0.59073467  0.44239636    -0.16200
H372        H  0.63433511  0.61467702  0.48340069     0.09000
H373        H  0.74229521  0.59863788  0.54187882     0.06900
H374        H  0.71721217  0.60638404  0.58680281     0.08100
H375        H  0.74403087  0.62743881  0.58097240     0.07100
H376        H  0.64811101  0.66640359  0.41956937     0.02000
H377        H  0.67050020  0.65881139  0.36919162     0.02500
H378        H  0.67376060  0.68837504  0.40444058     0.06000
H379        H  0.69791265  0.59412372  0.31859795     0.05000
H380        H  0.70988199  0.59399295  0.38290538    -0.00800
H381        H  0.70155490  0.62409611  0.35243420     0.00700
H382        H  0.58841352  0.56995523  0.44195751     0.04300
H383        H  0.57879241  0.60227644  0.42252701     0.06300
H384        H  0.59379239  0.59712786  0.48281911     0.07100
C385        C  0.61376993  0.71531850  0.10147070    -0.22500
C386        C  0.62656475  0.69182466  0.10546584     0.09500
C387        C  0.64978243  0.68791052  0.07902931     0.09900
C388        C  0.66043408  0.70832401  0.05092808    -0.17400
C389        C  0.64799730  0.73231966  0.04773450    -0.27800
C390        C  0.62395802  0.73560736  0.07283531     0.18200
C391        C  0.61452534  0.67134365  0.13621079     0.12200
C392        C  0.66314509  0.66217574  0.08032816    -0.12200
H393        H  0.67863188  0.70557511  0.03171052     0.12500
C394        C  0.60916339  0.76059984  0.07200723    -0.23000
H395        H  0.59572544  0.71780878  0.12144980     0.08100
C396        C  0.62085357  0.66768607  0.18800864     0.04500
C397        C  0.60902601  0.64757516  0.21505943    -0.20200
C398        C  0.59107010  0.63129035  0.19121854    -0.12500
C399        C  0.58372193  0.63603822  0.14022605     0.13200
C400        C  0.59557023  0.65606031  0.11332186    -0.23000
C401        C  0.64004312  0.68493774  0.21448077    -0.06000
H402        H  0.61449886  0.64394305  0.25426210     0.14700
C403        C  0.56322145  0.62021041  0.11426819    -0.16200
H404        H  0.59029965  0.65964707  0.07396977     0.09000
H405        H  0.59146341  0.75968596  0.09548723     0.06900
H406        H  0.62129950  0.77625207  0.08775474     0.08100
H407        H  0.60319816  0.76526344  0.03246907     0.07100
H408        H  0.65017142  0.64703886  0.06482632     0.02000
H409        H  0.66837894  0.65718374  0.12008899     0.02500
H410        H  0.68097459  0.66228716  0.05717800     0.06000
H411        H  0.64280979  0.67935808  0.25495888     0.05000
H412        H  0.63317453  0.70519706  0.21352692    -0.00800
H413        H  0.65893160  0.68380515  0.19512832     0.00700
H414        H  0.55881332  0.62755582  0.07550348     0.04300
H415        H  0.54526649  0.62076398  0.13702096     0.06300
H416        H  0.56977023  0.60000013  0.11025977     0.07100
C417        C  0.76507964  0.76206298  0.70863018    -0.22500
C418        C  0.76088993  0.74515708  0.74930440     0.09500
C419        C  0.76954303  0.71940862  0.74600284     0.09900
C420        C  0.78182788  0.71098357  0.70135129    -0.17400
C421        C  0.78534387  0.72772001  0.66004899    -0.27800
C422        C  0.77714182  0.75365736  0.66392391     0.18200
C423        C  0.74703420  0.75486339  0.79463720     0.12200
C424        C  0.76538788  0.70080735  0.78920853    -0.12200
H425        H  0.78770771  0.69102243  0.69779469     0.12500
C426        C  0.78062660  0.77293292  0.62154457    -0.23000
H427        H  0.75854749  0.78185043  0.71152882     0.08100
C428        C  0.75990300  0.76855671  0.83337917     0.04500
C429        C  0.74600865  0.77742464  0.87558812    -0.20200
C430        C  0.71937405  0.77312872  0.88005355    -0.12500
C431        C  0.70643176  0.75964227  0.84038903     0.13200
C432        C  0.72051695  0.75069338  0.79826112    -0.23000
C433        C  0.78835467  0.77363510  0.83026637    -0.06000
H434        H  0.75614758  0.78779081  0.90539121     0.14700
C435        C  0.67804186  0.75397385  0.84227010    -0.16200
H436        H  0.71084914  0.74026640  0.76792195     0.09000
H437        H  0.79191126  0.78965243  0.63583478     0.06900
H438        H  0.76155297  0.77984690  0.60847359     0.08100
H439        H  0.79097650  0.76490292  0.58829573     0.07100
H440        H  0.74451343  0.69862019  0.79661265     0.02000
H441        H  0.77497297  0.70819687  0.82414357     0.02500
H442        H  0.77336001  0.68143380  0.78045451     0.06000
H443        H  0.79551524  0.78439274  0.86408841     0.05000
H444        H  0.79265002  0.78527651  0.79586044    -0.00800
H445        H  0.79887933  0.75505725  0.82799225     0.00700
H446        H  0.67156582  0.74256691  0.80873424     0.04300
H447        H  0.66703753  0.77230109  0.84232739     0.06300
H448        H  0.67348267  0.74263463  0.87695461     0.07100
C449        C  0.69695971  0.74821024  0.24156367    -0.22500
C450        C  0.72132208  0.75277867  0.26239077     0.09500
C451        C  0.73485483  0.77548255  0.24926843     0.09900
C452        C  0.72468792  0.79197635  0.21202621    -0.17400
C453        C  0.70149214  0.78602388  0.18759968    -0.27800
C454        C  0.68677070  0.76474227  0.20458508     0.18200
C455        C  0.73250334  0.73368653  0.29788860     0.12200
C456        C  0.76042445  0.78179363  0.27325644    -0.12200
H457        H  0.73605840  0.80814116  0.19851743     0.12500
C458        C  0.66077332  0.75843731  0.18243963    -0.23000
H459        H  0.68624639  0.73121224  0.25288093     0.08100
C460        C  0.72482887  0.73286403  0.34919394     0.04500
C461        C  0.73878065  0.71770079  0.38335705    -0.20200
C462        C  0.76010581  0.70314655  0.36767284    -0.12500
C463        C  0.76666570  0.70251542  0.31558590     0.13200
C464        C  0.75265684  0.71777770  0.28112155    -0.23000
C465        C  0.70293590  0.74913753  0.36849254    -0.06000
H466        H  0.73411831  0.71872464  0.42356747     0.14700
C467        C  0.78895269  0.68713636  0.29584340    -0.16200
H468        H  0.75826362  0.71824574  0.24137797     0.09000
H469        H  0.64636157  0.75744122  0.21349414     0.06900
H470        H  0.66154496  0.73948359  0.16273614     0.08100
H471        H  0.65415725  0.77324589  0.15496375     0.07100
H472        H  0.77460376  0.76654851  0.26393332     0.02000
H473        H  0.75826734  0.78310744  0.31525650     0.02500
H474        H  0.76814619  0.80048903  0.25936119     0.06000
H475        H  0.69992078  0.74659366  0.41007638     0.05000
H476        H  0.68489557  0.74355491  0.34873875    -0.00800
H477        H  0.70699485  0.76984587  0.36127751     0.00700
H478        H  0.78217098  0.67361423  0.26581497     0.04300
H479        H  0.79807936  0.67560178  0.32622754     0.06300
H480        H  0.80355337  0.70032104  0.27935517     0.07100
C481        C  0.64272877  0.89430925  0.84909459    -0.22500
C482        C  0.63258855  0.91563331  0.87469816     0.09500
C483        C  0.63680329  0.91853353  0.92746992     0.09900
C484        C  0.65019810  0.89934638  0.95399171    -0.17400
C485        C  0.65919760  0.87703219  0.92920057    -0.27800
C486        C  0.65600146  0.87490907  0.87541634     0.18200
C487        C  0.61745304  0.93473813  0.84563844     0.12200
C488        C  0.62696259  0.94177389  0.95597415    -0.12200
H489        H  0.65253698  0.90132441  0.99480452     0.12500
C490        C  0.66604407  0.85235822  0.84491410    -0.23000
H491        H  0.63961102  0.89255304  0.80841425     0.08100
C492        C  0.62946990  0.95306463  0.81417817     0.04500
C493        C  0.61465698  0.97263513  0.79216974    -0.20200
C494        C  0.58819786  0.97494130  0.80233112    -0.12500
C495        C  0.57595724  0.95551997  0.83168655     0.13200
C496        C  0.59077748  0.93544509  0.85223970    -0.23000
C497        C  0.65812018  0.95285293  0.80614405    -0.06000
H498        H  0.62418299  0.98720883  0.76948218     0.14700
C499        C  0.54783671  0.95657288  0.84481792    -0.16200
H500        H  0.58176971  0.92097203  0.87609948     0.09000
H501        H  0.66362336  0.85537207  0.80329479     0.06900
H502        H  0.65534409  0.83450890  0.85464612     0.08100
H503        H  0.68687004  0.84974138  0.85244184     0.07100
H504        H  0.60568813  0.94245436  0.95389492     0.02000
H505        H  0.63502819  0.95963062  0.93898547     0.02500
H506        H  0.63250190  0.94129108  0.99684634     0.06000
H507        H  0.66450311  0.96910804  0.78172504     0.05000
H508        H  0.66392550  0.93458867  0.78731925    -0.00800
H509        H  0.66811128  0.95455665  0.84342954     0.00700
H510        H  0.54174844  0.93975850  0.86806441     0.04300
H511        H  0.53610318  0.95661703  0.80947565     0.06300
H512        H  0.54393562  0.97415955  0.86746367     0.07100
C513        C  0.42141001  0.12952128  0.92548040    -0.22500
C514        C  0.42012208  0.13177974  0.87239848     0.09500
C515        C  0.39981216  0.14560578  0.84992173     0.09900
C516        C  0.38053328  0.15601448  0.88109824    -0.17400
C517        C  0.38134909  0.15337383  0.93449887    -0.27800
C518        C  0.40248645  0.14032852  0.95698750     0.18200
C519        C  0.44064805  0.11976482  0.84143367     0.12200
C520        C  0.39866084  0.14953722  0.79312812    -0.12200
H521        H  0.36466621  0.16619108  0.86354643     0.12500
C522        C  0.40517147  0.13700645  0.01383352    -0.23000
H523        H  0.43734710  0.11912959  0.94224688     0.08100
C524        C  0.46482552  0.13162536  0.83657455     0.04500
C525        C  0.48432801  0.11883921  0.81007853    -0.20200
C526        C  0.48052354  0.09419610  0.78839198    -0.12500
C527        C  0.45590601  0.08251928  0.79258635     0.13200
C528        C  0.43628403  0.09560735  0.81885969    -0.23000
C529        C  0.47009209  0.15776953  0.85965016    -0.06000
H530        H  0.50300649  0.12804257  0.80775563     0.14700
C531        C  0.45003138  0.05634479  0.77025324    -0.16200
H532        H  0.41753099  0.08668718  0.82297906     0.09000
H533        H  0.42259625  0.12580205  0.02403286     0.06900
H534        H  0.38829838  0.12648490  0.02917086     0.08100
H535        H  0.40688687  0.15618195  0.03248270     0.07100
H536        H  0.39755773  0.13058087  0.77348406     0.02000
H537        H  0.41615618  0.15992094  0.78029155     0.02500
H538        H  0.38164407  0.16107687  0.78173648     0.06000
H539        H  0.49000696  0.16439496  0.85194050     0.05000
H540        H  0.46751981  0.15699791  0.90157745    -0.00800
H541        H  0.45662911  0.17216744  0.84337751     0.00700
H542        H  0.42951232  0.05101846  0.77519117     0.04300
H543        H  0.46166607  0.04134514  0.78963267     0.06300
H544        H  0.45419880  0.05634346  0.72878250     0.07100
C545        C  0.48655429  0.46674107  0.53662664    -0.22500
C546        C  0.48780245  0.49379572  0.53741835     0.09500
C547        C  0.47918080  0.50716036  0.58093219     0.09900
C548        C  0.47025130  0.49312073  0.62305492    -0.17400
C549        C  0.46997903  0.46583191  0.62361836    -0.27800
C550        C  0.47806612  0.45255057  0.57913663     0.18200
C551        C  0.49900894  0.50756881  0.49287145     0.12200
C552        C  0.48017903  0.53621803  0.58376146    -0.07400
H553        H  0.46396022  0.50376208  0.65632821     0.12500
C554        C  0.47843887  0.42353782  0.57603907    -0.23000
H555        H  0.49285810  0.45663575  0.50270219     0.08100
C556        C  0.52543340  0.50559300  0.48097213     0.04500
C557        C  0.53494674  0.51771186  0.43705240    -0.20200
C558        C  0.51883411  0.53223209  0.40543951    -0.12500
C559        C  0.49261999  0.53486063  0.41790147     0.13200
C560        C  0.48295674  0.52240132  0.46140009    -0.23000
C561        C  0.54370311  0.49098186  0.51484566    -0.06000
H562        H  0.55504037  0.51569557  0.42702494     0.14700
C563        C  0.47470457  0.54983700  0.38401077    -0.16200
H564        H  0.46267664  0.52375512  0.47031665     0.09000
H565        H  0.48532284  0.41663830  0.53838491     0.06900
H566        H  0.45875246  0.41581375  0.58167970     0.08100
H567        H  0.49160252  0.41566657  0.60546186     0.07100
H568        H  0.46754619  0.54470796  0.55415982     0.02000
H569        H  0.50019433  0.54296944  0.57777669     0.02500
H570        H  0.47361669  0.54352711  0.62134904     0.06000
H571        H  0.56378971  0.49223225  0.50088013     0.05000
H572        H  0.53832073  0.47028535  0.51611480    -0.00800
H573        H  0.54313674  0.49915054  0.55396607     0.00700
H574        H  0.47448551  0.54100591  0.34548036     0.04300
H575        H  0.48129477  0.57016451  0.38113607     0.06300
H576        H  0.45475109  0.54983350  0.39889093     0.07100
C577        C  0.50530257  0.45699365  0.97846619    -0.22500
C578        C  0.49571918  0.47813803  0.00565292     0.09500
C579        C  0.46964270  0.48529177  0.99908534     0.09900
C580        C  0.45466824  0.47270572  0.96173077    -0.17400
C581        C  0.46504573  0.45276102  0.93205177    -0.27800
C582        C  0.48997874  0.44352092  0.94364273     0.18200
C583        C  0.51350089  0.49223657  0.04051953     0.12200
C584        C  0.45768193  0.50629396  0.03087514    -0.12200
H585        H  0.43552392  0.47974673  0.95315577     0.12500
C586        C  0.50128423  0.41990556  0.91857548    -0.23000
H587        H  0.52509625  0.45113520  0.98379517     0.08100
C588        C  0.52460782  0.48001073  0.08327224     0.04500
C589        C  0.54099251  0.49413562  0.11534884    -0.20200
C590        C  0.54551846  0.52051458  0.10768858    -0.12500
C591        C  0.53490344  0.53265663  0.06453110     0.13200
C592        C  0.51964818  0.51818640  0.03049181    -0.23000
C593        C  0.51768342  0.45271536  0.09773984    -0.06000
H594        H  0.54831686  0.48515860  0.14946921     0.14700
C595        C  0.53895768  0.56100058  0.05551076    -0.16200
H596        H  0.51167582  0.52739174  0.99701208     0.09000
H597        H  0.50787139  0.40621476  0.94833726     0.06900
H598        H  0.51798832  0.42556153  0.89486657     0.08100
H599        H  0.48716505  0.40943253  0.89445607     0.07100
H600        H  0.46716220  0.52505730  0.02331309     0.02000
H601        H  0.45967174  0.50148875  0.07189784     0.02500
H602        H  0.43690239  0.50853779  0.02228219     0.06000
H603        H  0.52628066  0.44717625  0.13485311     0.05000
H604        H  0.52479431  0.43889277  0.06879821    -0.00800
H605        H  0.49650708  0.45086902  0.10119882     0.00700
H606        H  0.52930712  0.56756932  0.02007643     0.04300
H607        H  0.55982835  0.56496552  0.05190161     0.06300
H608        H  0.53101881  0.57225360  0.08787568     0.07100
C609        C  0.39097335  0.27659680  0.95612659    -0.22500
C610        C  0.37615147  0.29505034  0.93082688     0.09500
C611        C  0.34927914  0.29519690  0.93780251     0.09900
C612        C  0.33777735  0.27659389  0.96944213    -0.17400
C613        C  0.35245622  0.25753215  0.99404165    -0.27800
C614        C  0.37966950  0.25781580  0.98744740     0.18200
C615        C  0.38943194  0.31509999  0.89999395     0.12200
C616        C  0.33273365  0.31504481  0.91186490    -0.12200
H617        H  0.31708020  0.27646187  0.97350329     0.12500
C618        C  0.39730128  0.23856527  0.01277405    -0.23000
H619        H  0.41162802  0.27684929  0.95095002     0.08100
C620        C  0.40247552  0.33565222  0.92393680     0.04500
C621        C  0.41362986  0.35501660  0.89410973    -0.20200
C622        C  0.41167823  0.35495707  0.84056074    -0.12500
C623        C  0.39919692  0.33386720  0.81637946     0.13200
C624        C  0.38847549  0.31405434  0.84650895    -0.23000
C625        C  0.40374342  0.33778046  0.98119430    -0.06000
H626        H  0.42319682  0.37094180  0.91313380     0.14700
C627        C  0.39594145  0.33269102  0.75940133    -0.16200
H628        H  0.37856064  0.29804511  0.82837012     0.09000
H629        H  0.41786193  0.24339096  0.00671740     0.06900
H630        H  0.39422297  0.21901391  0.99649767     0.08100
H631        H  0.39386905  0.23839380  0.05450984     0.07100
H632        H  0.33450200  0.31310233  0.86989814     0.02000
H633        H  0.33893323  0.33470220  0.92352474     0.02500
H634        H  0.31215170  0.31273425  0.92191762     0.06000
H635        H  0.41383758  0.35560793  0.99367235     0.05000
H636        H  0.41426171  0.32104289  0.99718247    -0.00800
H637        H  0.38400480  0.33822696  0.99711514     0.00700
H638        H  0.41505132  0.33228738  0.74077408     0.04300
H639        H  0.38499803  0.34976109  0.74603644     0.06300
H640        H  0.38527326  0.31512837  0.74728577     0.07100
C641        C  0.56075996  0.39637938  0.82091881    -0.22500
C642        C  0.55736496  0.37159344  0.84117687     0.09500
C643        C  0.53366388  0.35891611  0.83481638     0.09900
C644        C  0.51372900  0.37136223  0.80869729    -0.17400
C645        C  0.51654056  0.39661185  0.78946024    -0.27800
C646        C  0.54062992  0.40918577  0.79543076     0.18200
C647        C  0.57824196  0.35979136  0.87182079     0.12200
C648        C  0.52918676  0.33243954  0.85679771    -0.12200
H649        H  0.49546204  0.36150764  0.80511643     0.12500
C650        C  0.54539860  0.43608020  0.77587918    -0.23000
H651        H  0.57905853  0.40597329  0.82629488     0.08100
C652        C  0.59706754  0.34381921  0.84964756     0.04500
C653        C  0.61605992  0.33271011  0.88074484    -0.20200
C654        C  0.61655641  0.33700440  0.93368065    -0.12500
C655        C  0.59745153  0.35298447  0.95581105     0.13200
C656        C  0.57860309  0.36415162  0.92448545    -0.23000
C657        C  0.59720074  0.33867944  0.79316266    -0.06000
H658        H  0.63071197  0.32072052  0.86357109     0.14700
C659        C  0.59728221  0.35927668  0.01191933    -0.16200
H660        H  0.56398595  0.37645749  0.94110999     0.09000
H661        H  0.56565897  0.44215819  0.78168664     0.06900
H662        H  0.53311073  0.45006826  0.79659563     0.08100
H663        H  0.54124990  0.43690057  0.73439920     0.07100
H664        H  0.53179181  0.33302357  0.89877812     0.02000
H665        H  0.54303368  0.31852516  0.84020286     0.02500
H666        H  0.50947724  0.32529019  0.84869152     0.06000
H667        H  0.61327572  0.32581055  0.78197806     0.05000
H668        H  0.59931225  0.35715120  0.77223614    -0.00800
H669        H  0.57893715  0.32927073  0.78156043     0.00700
H670        H  0.58173819  0.37304369  0.02188525     0.04300
H671        H  0.61581939  0.36825061  0.02297663     0.06300
H672        H  0.59412709  0.34145395  0.03441138     0.07100
C673        C  0.63694509  0.45562999  0.21681640    -0.22500
C674        C  0.62265678  0.43688647  0.19095807     0.09500
C675        C  0.59562348  0.43747125  0.19352111     0.09900
C676        C  0.58342731  0.45830857  0.21780683    -0.17400
C677        C  0.59761873  0.47877492  0.23937750    -0.27800
C678        C  0.62492489  0.47649502  0.24131838     0.18200
C679        C  0.63646252  0.41691435  0.16115304     0.12200
C680        C  0.57969264  0.41620542  0.17017773    -0.12200
H681        H  0.56264426  0.45907648  0.21788992     0.12500
C682        C  0.64191594  0.49586030  0.26818731    -0.23000
H683        H  0.65771344  0.45436488  0.21624427     0.08100
C684        C  0.64019593  0.41934800  0.10812925     0.04500
C685        C  0.65184111  0.39912123  0.08098521    -0.20200
C686        C  0.65996672  0.37651089  0.10567777    -0.12500
C687        C  0.65811547  0.37519721  0.15978836     0.13200
C688        C  0.64622615  0.39538278  0.18655892    -0.23000
C689        C  0.63182856  0.44328470  0.08023350    -0.06000
H690        H  0.65364880  0.40061209  0.03996591     0.14700
C691        C  0.66873076  0.35289367  0.19019092    -0.16200
H692        H  0.64403585  0.39416859  0.22753184     0.09000
H693        H  0.64188572  0.51451097  0.24754664     0.06900
H694        H  0.66219931  0.48929625  0.26994084     0.08100
H695        H  0.63523621  0.49862689  0.30797266     0.07100
H696        H  0.58494023  0.39747550  0.18778488     0.02000
H697        H  0.58315804  0.41511686  0.12854079     0.02500
H698        H  0.55884610  0.41934876  0.17632942     0.06000
H699        H  0.63640773  0.44218135  0.03897285     0.05000
H700        H  0.64186255  0.46036201  0.09642824    -0.00800
H701        H  0.61079647  0.44598671  0.08413470     0.00700
H702        H  0.66810905  0.35677997  0.23180564     0.04300
H703        H  0.68910404  0.34948209  0.17971531     0.06300
H704        H  0.65721718  0.33518968  0.18338819     0.07100
C705        C  0.59117403  0.15153125  0.93444418    -0.22500
C706        C  0.61198416  0.16521252  0.91389364     0.09500
C707        C  0.62001828  0.15968572  0.86363534     0.09900
C708        C  0.60702622  0.14068196  0.83511202    -0.17400
C709        C  0.58648916  0.12665100  0.85597879    -0.27800
C710        C  0.57839092  0.13226002  0.90626784     0.18200
C711        C  0.62404187  0.18634234  0.94438581     0.12200
C712        C  0.64227881  0.17385162  0.83998044    -0.12200
H713        H  0.61349958  0.13614365  0.79699663     0.12500
C714        C  0.55590609  0.11843128  0.92999399    -0.23000
H715        H  0.58493138  0.15598375  0.97285847     0.08100
C716        C  0.61147826  0.21016048  0.95093123     0.04500
C717        C  0.62407951  0.23031134  0.97655754    -0.20200
C718        C  0.64917714  0.22758850  0.99630522    -0.12500
C719        C  0.66131518  0.20314266  0.99167585     0.13200
C720        C  0.64855749  0.18291806  0.96572679    -0.23000
C721        C  0.58494406  0.21464846  0.92960197    -0.06000
H722        H  0.61425758  0.24863136  0.97990075     0.14700
C723        C  0.68755771  0.19799809  0.01361027    -0.16200
H724        H  0.65791491  0.16436786  0.96130211     0.09000
H725        H  0.55107915  0.12653312  0.96799006     0.06900
H726        H  0.56042145  0.09770647  0.93534766     0.08100
H727        H  0.53873164  0.12036721  0.90513048     0.07100
H728        H  0.66003731  0.17023423  0.86229366     0.02000
H729        H  0.63827808  0.19488620  0.83949994     0.02500
H730        H  0.64578773  0.16744730  0.80019475     0.06000
H731        H  0.57821299  0.23465553  0.93670440     0.05000
H732        H  0.57104120  0.20129216  0.94774529    -0.00800
H733        H  0.58498269  0.21132515  0.88779998     0.00700
H734        H  0.69349307  0.17762184  0.00785927     0.04300
H735        H  0.68744941  0.20178386  0.05521064     0.06300
H736        H  0.70207470  0.21040811  0.99476672     0.07100
C737        C  0.35245300  0.59303985  0.85632070    -0.22500
C738        C  0.35674086  0.56921499  0.87954648     0.09500
C739        C  0.34755760  0.56473266  0.92929923     0.09900
C740        C  0.33546642  0.58485753  0.95596560    -0.17400
C741        C  0.33272710  0.60944481  0.93411767    -0.27800
C742        C  0.34053101  0.61325695  0.88279060     0.18200
C743        C  0.37211083  0.54966304  0.85210131     0.12200
C744        C  0.35124949  0.53895259  0.95470317    -0.12200
H745        H  0.32946228  0.58175967  0.99495733     0.12500
C746        C  0.33647114  0.63847721  0.85528549    -0.23000
H747        H  0.35922030  0.59604321  0.81774630     0.08100
C748        C  0.36049160  0.53097220  0.82070081     0.04500
C749        C  0.37562481  0.51123693  0.79998493    -0.20200
C750        C  0.40221844  0.50973230  0.80983853    -0.12500
C751        C  0.41411852  0.52991522  0.83801630     0.13200
C752        C  0.39880180  0.54957078  0.85885561    -0.23000
C753        C  0.33206565  0.53161541  0.80999446    -0.06000
H754        H  0.36635015  0.49629143  0.77752530     0.14700
C755        C  0.44261594  0.53056206  0.84830087    -0.16200
H756        H  0.40754014  0.56451505  0.88210148     0.09000
H757        H  0.34109352  0.63682483  0.81411489     0.06900
H758        H  0.34918322  0.65367525  0.87123396     0.08100
H759        H  0.31607207  0.64446548  0.85851706     0.07100
H760        H  0.37205267  0.53450834  0.95759881     0.02000
H761        H  0.34161412  0.52362929  0.93202915     0.02500
H762        H  0.34303074  0.53869731  0.99370792     0.06000
H763        H  0.32601946  0.51552971  0.78461541     0.05000
H764        H  0.32703102  0.55007137  0.79106622    -0.00800
H765        H  0.32117260  0.53002051  0.84614581     0.00700
H766        H  0.44835931  0.54804004  0.87010539     0.04300
H767        H  0.45326092  0.53081382  0.81168609     0.06300
H768        H  0.44835373  0.51349852  0.87111830     0.07100
C769        C  0.44298929  0.59969297  0.18441861    -0.22500
C770        C  0.44789175  0.62521985  0.16952179     0.09500
C771        C  0.47134701  0.63687206  0.18298105     0.09900
C772        C  0.48959737  0.62258294  0.21021492    -0.17400
C773        C  0.48526651  0.59662290  0.22428975    -0.27800
C774        C  0.46136759  0.58513178  0.21128681     0.18200
C775        C  0.42836146  0.63901478  0.13858783     0.12200
C776        C  0.47742972  0.66418069  0.16744934    -0.12200
H777        H  0.50772440  0.63178963  0.21937043     0.12500
C778        C  0.45488019  0.55770448  0.22510584    -0.23000
H779        H  0.42476612  0.59099418  0.17406324     0.08100
C780        C  0.42471195  0.63316397  0.08649243     0.04500
C781        C  0.40399405  0.64425949  0.06015945    -0.20200
C782        C  0.38704074  0.66118875  0.08467557    -0.12500
C783        C  0.39168242  0.66835173  0.13585944     0.13200
C784        C  0.41235273  0.65718166  0.16223849    -0.23000
C785        C  0.44234683  0.61478084  0.05909344    -0.06000
H786        H  0.40011182  0.63853320  0.02111267     0.14700
C787        C  0.37458090  0.68696073  0.16405354    -0.16200
H788        H  0.41540560  0.66192619  0.20205900     0.09000
H789        H  0.46830527  0.54423054  0.20591247     0.06900
H790        H  0.43510945  0.55237730  0.21302078     0.08100
H791        H  0.45603226  0.55526518  0.26699309     0.07100
H792        H  0.46327242  0.67761113  0.18456833     0.02000
H793        H  0.47664832  0.66584890  0.12530979     0.02500
H794        H  0.49688915  0.67020813  0.18025119     0.06000
H795        H  0.43701368  0.61264827  0.01830273     0.05000
H796        H  0.44142910  0.59541403  0.07694713    -0.00800
H797        H  0.46238021  0.62210190  0.06110627     0.00700
H798        H  0.36558773  0.67705801  0.19698976     0.04300
H799        H  0.35908038  0.69494393  0.13971996     0.06300
H800        H  0.38624478  0.70343725  0.17826440     0.07100
C801        C  0.85349194  0.53906012  0.72604673    -0.22500
C802        C  0.86727875  0.55777823  0.69934628     0.09500
C803        C  0.89432817  0.55714927  0.69983877     0.09900
C804        C  0.90695619  0.53614773  0.72245588    -0.17400
C805        C  0.89313329  0.51565744  0.74464935    -0.27800
C806        C  0.86595198  0.51807174  0.74910482     0.18200
C807        C  0.85299370  0.57712013  0.66897590     0.12200
C808        C  0.90975486  0.57841869  0.67554402    -0.12200
H809        H  0.92771546  0.53515068  0.72019909     0.12500
C810        C  0.84956657  0.49860362  0.77680093    -0.23000
H811        H  0.83270346  0.54032311  0.72689467     0.08100
C812        C  0.84788183  0.57309673  0.61676092     0.04500
C813        C  0.83597684  0.59267130  0.58838434    -0.20200
C814        C  0.82879803  0.61618261  0.61106807    -0.12500
C815        C  0.83214941  0.61920415  0.66466525     0.13200
C816        C  0.84441833  0.59967601  0.69264776    -0.23000
C817        C  0.85522536  0.54818415  0.59096261    -0.06000
H818        H  0.83315786  0.58987942  0.54781409     0.14700
C819        C  0.82264924  0.64259176  0.69327081    -0.16200
H820        H  0.84776457  0.60215952  0.73314141     0.09000
H821        H  0.84907814  0.48006499  0.75562855     0.06900
H822        H  0.82936509  0.50521233  0.78044232     0.08100
H823        H  0.85717186  0.49560239  0.81589322     0.07100
H824        H  0.90457502  0.59720085  0.69311628     0.02000
H825        H  0.90570723  0.57919211  0.63404050     0.02500
H826        H  0.93069646  0.57556420  0.68105181     0.06000
H827        H  0.84963025  0.54804588  0.55010361     0.05000
H828        H  0.84539583  0.53179904  0.60995724    -0.00800
H829        H  0.87631003  0.54531522  0.59334945     0.00700
H830        H  0.80195842  0.64560350  0.68493915     0.04300
H831        H  0.83387228  0.65995797  0.68260811     0.06300
H832        H  0.82470080  0.64024380  0.73514175     0.07100
C833        C  0.85343755  0.37942705  0.94100916    -0.22500
C834        C  0.82772558  0.38460309  0.92959537     0.09500
C835        C  0.82188729  0.40232336  0.89047721     0.09900
C836        C  0.84190850  0.41339723  0.86176232    -0.17400
C837        C  0.86781226  0.40730366  0.87130431    -0.27800
C838        C  0.87355612  0.39041059  0.91260219     0.18200
C839        C  0.80737394  0.36880396  0.95454723     0.12200
C840        C  0.79443272  0.40899622  0.87824242    -0.12200
H841        H  0.83723129  0.42640066  0.83087596     0.12500
C842        C  0.90062567  0.38255689  0.92583149    -0.23000
H843        H  0.85772357  0.36573971  0.97104420     0.08100
C844        C  0.79968199  0.34497787  0.93322938     0.04500
C845        C  0.77962137  0.33096815  0.95580519    -0.20200
C846        C  0.76675528  0.34015167  0.99917835    -0.12500
C847        C  0.77520440  0.36354272  0.02187103     0.13200
C848        C  0.79544023  0.37756165  0.99927799    -0.23000
C849        C  0.81206322  0.33474727  0.88541284    -0.06000
H850        H  0.77278305  0.31361537  0.93720598     0.14700
C851        C  0.76334716  0.37415186  0.06982743    -0.16200
H852        H  0.80164814  0.39565597  0.01618232     0.09000
H853        H  0.90978070  0.37305236  0.89257908     0.06900
H854        H  0.90121481  0.36870481  0.95804576     0.08100
H855        H  0.91185445  0.39974788  0.93756100     0.07100
H856        H  0.78513848  0.41751305  0.91238431     0.02000
H857        H  0.78377642  0.39135079  0.86671499     0.02500
H858        H  0.79310375  0.42317259  0.84668292     0.06000
H859        H  0.80362142  0.31598317  0.87345025     0.05000
H860        H  0.83292486  0.33184770  0.89199873    -0.00800
H861        H  0.80937023  0.34867052  0.85377548     0.00700
H862        H  0.77851639  0.37681608  0.09918949     0.04300
H863        H  0.74859802  0.36114292  0.08615678     0.06300
H864        H  0.75435619  0.39311968  0.06173006     0.07100
C865        C  0.95717893  0.63396898  0.33863921    -0.22500
C866        C  0.93528727  0.61896205  0.34627948     0.09500
C867        C  0.93391379  0.59392653  0.32544403     0.09900
C868        C  0.95504289  0.58407523  0.29849275    -0.17400
C869        C  0.97778251  0.59852881  0.29278973    -0.27800
C870        C  0.97852662  0.62422688  0.31253448     0.18200
C871        C  0.91408202  0.63006017  0.37653928     0.12200
C872        C  0.91044468  0.57737596  0.33306659    -0.12200
H873        H  0.95411540  0.56456919  0.28373788     0.12500
C874        C  0.00167550  0.64166563  0.30800476    -0.23000
H875        H  0.95771736  0.65331774  0.35442767     0.08100
C876        C  0.91430065  0.62949933  0.43024983     0.04500
C877        C  0.89365593  0.64021290  0.45719671    -0.20200
C878        C  0.87265109  0.65122611  0.43158804    -0.12500
C879        C  0.87307914  0.65262224  0.37755868     0.13200
C880        C  0.89385533  0.64205235  0.35085687    -0.23000
C881        C  0.93603866  0.61709054  0.45900168    -0.06000
H882        H  0.89356028  0.63919393  0.49844233     0.14700
C883        C  0.85189653  0.66518730  0.34743439    -0.16200
H884        H  0.89422677  0.64281927  0.30960317     0.09000
H885        H  0.01831093  0.63310092  0.32822527     0.06900
H886        H  0.99828492  0.66094678  0.32527503     0.08100
H887        H  0.00637520  0.64477652  0.26724582     0.07100
H888        H  0.89342188  0.58696854  0.31607861     0.02000
H889        H  0.90711405  0.57444826  0.37442911     0.02500
H890        H  0.91258797  0.55813115  0.31489463     0.06000
H891        H  0.93323288  0.61830592  0.50087537     0.05000
H892        H  0.95440463  0.62687579  0.44959921    -0.00800
H893        H  0.93726395  0.59640094  0.44832888     0.00700
H894        H  0.84842213  0.68506130  0.36171545     0.04300
H895        H  0.83420471  0.65340629  0.35063819     0.06300
H896        H  0.85664590  0.66652821  0.30628931     0.07100
C897        C  0.97920928  0.47401981  0.99478379    -0.22500
C898        C  0.99757599  0.49353215  0.98736863     0.09500
C899        C  0.00584796  0.49920886  0.93751375     0.09900
C900        C  0.99502051  0.48579388  0.89612137    -0.17400
C901        C  0.97622540  0.46658193  0.90321878    -0.27800
C902        C  0.96836239  0.46052568  0.95329867     0.18200
C903        C  0.00705072  0.50856176  0.03206346     0.12200
C904        C  0.02567589  0.51983315  0.92795020    -0.12200
H905        H  0.00108473  0.49053055  0.85778416     0.12500
C906        C  0.94767182  0.44086203  0.96292672    -0.23000
H907        H  0.97289794  0.46978268  0.03323456     0.08100
C908        C  0.99233882  0.52868515  0.05364792     0.04500
C909        C  0.00159824  0.54184047  0.09697209    -0.20200
C910        C  0.02515066  0.53512688  0.11937805    -0.12500
C911        C  0.04034216  0.51568554  0.09644196     0.13200
C912        C  0.03107523  0.50261478  0.05316640    -0.23000
C913        C  0.96670274  0.53598343  0.03129248    -0.06000
H914        H  0.98986238  0.55652487  0.11484306     0.14700
C915        C  0.06646830  0.50831145  0.11660997    -0.16200
H916        H  0.04254559  0.48748840  0.03609517     0.09000
H917        H  0.94310209  0.43923460  0.00411175     0.06900
H918        H  0.95409601  0.42164382  0.94936892     0.08100
H919        H  0.92985047  0.44649915  0.94248995     0.07100
H920        H  0.04394909  0.51466495  0.94722067     0.02000
H921        H  0.01876407  0.53860584  0.94302980     0.02500
H922        H  0.02966632  0.52218062  0.88666556     0.06000
H923        H  0.95775375  0.55223306  0.05237842     0.05000
H924        H  0.95339352  0.51925142  0.03290006    -0.00800
H925        H  0.96919465  0.54193911  0.99098849     0.00700
H926        H  0.06616964  0.48787734  0.12919701     0.04300
H927        H  0.07286908  0.52049371  0.14903401     0.06300
H928        H  0.08094094  0.51051504  0.08591516     0.07100
C929        C  0.98248436  0.53420486  0.47464967    -0.22500
C930        C  0.99157356  0.51427997  0.50568875     0.09500
C931        C  0.01800612  0.50758177  0.50315791     0.09900
C932        C  0.03359426  0.51856082  0.46498036    -0.17400
C933        C  0.02364254  0.53702881  0.43141219    -0.27800
C934        C  0.99860859  0.54668727  0.44007291     0.18200
C935        C  0.97298235  0.50033928  0.53906642     0.12200
C936        C  0.02984345  0.48895039  0.54042633    -0.12200
H937        H  0.05301235  0.51157811  0.45946262     0.12500
C938        C  0.98820039  0.56999295  0.41287595    -0.23000
H939        H  0.96246025  0.53978203  0.47630370     0.08100
C940        C  0.95840507  0.51312913  0.57698662     0.04500
C941        C  0.94262304  0.49856957  0.60939309    -0.20200
C942        C  0.94207851  0.47156327  0.60687425    -0.12500
C943        C  0.95549361  0.45890266  0.56749305     0.13200
C944        C  0.97002607  0.47352537  0.53297680    -0.23000
C945        C  0.96095074  0.54171767  0.58668542    -0.06000
H946        H  0.93277212  0.50811113  0.64041641     0.14700
C947        C  0.95574985  0.42994928  0.56254632    -0.16200
H948        H  0.98017112  0.46372918  0.50256226     0.09000
H949        H  0.00266361  0.57954244  0.38833559     0.06900
H950        H  0.98215704  0.58451864  0.44149849     0.08100
H951        H  0.97133771  0.56425757  0.38961679     0.07100
H952        H  0.02169172  0.46935459  0.53548167     0.02000
H953        H  0.02627043  0.49571502  0.57994954     0.02500
H954        H  0.05094773  0.48746317  0.53508659     0.06000
H955        H  0.95061458  0.54757872  0.62170120     0.05000
H956        H  0.95259316  0.55291662  0.55484915    -0.00800
H957        H  0.98148123  0.54694398  0.59177105     0.00700
H958        H  0.94853163  0.42433431  0.52425675     0.04300
H959        H  0.94344645  0.42038628  0.59138316     0.06300
H960        H  0.97570324  0.42276270  0.56712676     0.07100
C961        C  0.16994979  0.60026959  0.18172532    -0.22500
C962        C  0.16646200  0.60137147  0.12878523     0.09500
C963        C  0.14361332  0.59189018  0.10706076     0.09900
C964        C  0.12432408  0.58223488  0.13898222    -0.17400
C965        C  0.12690537  0.58253870  0.19251689    -0.27800
C966        C  0.15038166  0.59129963  0.21407592     0.18200
C967        C  0.18619795  0.61452965  0.09759225     0.12200
C968        C  0.13918634  0.59293925  0.05036930    -0.12200
H969        H  0.10661859  0.57539397  0.12186086     0.12500
C970        C  0.15464575  0.59266711  0.27083745    -0.23000
H971        H  0.18768403  0.60765290  0.19789745     0.08100
C972        C  0.18685644  0.64170058  0.09403263     0.04500
C973        C  0.20777412  0.65371679  0.07012112    -0.20200
C974        C  0.22805667  0.63911088  0.05007625    -0.12500
C975        C  0.22605440  0.61186375  0.04927112     0.13200
C976        C  0.20524162  0.59987050  0.07357124    -0.23000
C977        C  0.16593773  0.65796902  0.11718530    -0.06000
H978        H  0.20928515  0.67459932  0.07081836     0.14700
C979        C  0.24573801  0.59500360  0.02361911    -0.16200
H980        H  0.20424810  0.57898139  0.07504319     0.09000
H981        H  0.14018329  0.60560940  0.28848688     0.06900
H982        H  0.17395818  0.60042966  0.28046640     0.08100
H983        H  0.15319154  0.57306990  0.28757281     0.07100
H984        H  0.15410722  0.58145236  0.03050253     0.02000
H985        H  0.14018220  0.61324925  0.03712501     0.02500
H986        H  0.12007087  0.58505754  0.03963793     0.06000
H987        H  0.16933583  0.67887765  0.11083932     0.05000
H988        H  0.16501141  0.65461485  0.15889236    -0.00800
H989        H  0.14716936  0.65280761  0.09975031     0.00700
H990        H  0.25550393  0.58281440  0.05246090     0.04300
H991        H  0.26041503  0.60630593  0.00272994     0.06300
H992        H  0.23603204  0.58230877  0.99537044     0.07100
C993        C  0.31053331  0.35155707  0.56892074    -0.22500
C994        C  0.30821297  0.37672691  0.58797072     0.09500
C995        C  0.28495459  0.39014355  0.58230539     0.09900
C996        C  0.26370034  0.37726602  0.56191310    -0.17400
C997        C  0.26496867  0.35102183  0.54816195    -0.27800
C998        C  0.28912669  0.33840637  0.54895890     0.18200
C999        C  0.32894384  0.38741530  0.62009318     0.12200
C1000       C  0.28221042  0.41759938  0.60051281    -0.12200
H1001       H  0.24551298  0.38738552  0.56033632     0.12500
C1002       C  0.29255134  0.31116895  0.52984683    -0.23000
H1003       H  0.32878235  0.34166619  0.57260000     0.08100
C1004       C  0.32949728  0.38239397  0.67287819     0.04500
C1005       C  0.34917926  0.39302656  0.70273651    -0.20200
C1006       C  0.36848508  0.40834574  0.68092936    -0.12500
C1007       C  0.36729547  0.41413709  0.62807562     0.13200
C1008       C  0.34743153  0.40355888  0.59835346    -0.23000
C1009       C  0.30938247  0.36560295  0.69753990    -0.06000
H1010       H  0.35005184  0.38846447  0.74299676     0.14700
C1011       C  0.38646924  0.43179917  0.60279210    -0.16200
H1012       H  0.34635615  0.40773107  0.55794709     0.09000
H1013       H  0.28252813  0.29735285  0.55518713     0.06900
H1014       H  0.31312496  0.30554306  0.52905237     0.08100
H1015       H  0.28490559  0.30946622  0.49044073     0.07100
H1016       H  0.29610853  0.43010849  0.58011703     0.02000
H1017       H  0.28604871  0.41871315  0.64207890     0.02500
H1018       H  0.26259723  0.42521644  0.59347249     0.06000
H1019       H  0.31264845  0.36362705  0.73917513     0.05000
H1020       H  0.30977042  0.34600896  0.68038580    -0.00800
H1021       H  0.29005938  0.37414394  0.69173841     0.00700
H1022       H  0.40575339  0.42275937  0.60202864     0.04300
H1023       H  0.38739925  0.45044779  0.62363287     0.06300
H1024       H  0.38106058  0.43596506  0.56268525     0.07100
C1025       C  0.22297296  0.25864166  0.29314303    -0.22500
C1026       C  0.24837787  0.25024808  0.30065782     0.09500
C1027       C  0.25989514  0.25344458  0.34885510     0.09900
C1028       C  0.24584905  0.26492094  0.38818106    -0.17400
C1029       C  0.22024387  0.27318787  0.38142012    -0.27800
C1030       C  0.20860805  0.26975328  0.33304787     0.18200
C1031       C  0.26265788  0.23806323  0.25786785     0.12200
C1032       C  0.28682706  0.24415642  0.35953788    -0.12200
H1033       H  0.25506530  0.26703079  0.42501440     0.12500
C1034       C  0.18135844  0.27791243  0.32280959    -0.23000
H1035       H  0.21433425  0.25640572  0.25580489     0.08100
C1036       C  0.25557910  0.21368477  0.23808143     0.04500
C1037       C  0.26949684  0.20324731  0.19721616    -0.20200
C1038       C  0.29033944  0.21651303  0.17567851    -0.12500
C1039       C  0.29789155  0.24051520  0.19633224     0.13200
C1040       C  0.28391448  0.25103331  0.23712195    -0.23000
C1041       C  0.23325597  0.19872322  0.25958069    -0.06000
H1042       H  0.26345535  0.18506731  0.18052743     0.14700
C1043       C  0.31964386  0.25574667  0.17343243    -0.16200
H1044       H  0.28915026  0.26984171  0.25207755     0.09000
H1045       H  0.16799938  0.26672453  0.34719737     0.06900
H1046       H  0.17574432  0.27446331  0.28251907     0.08100
H1047       H  0.17924287  0.29882150  0.33077024     0.07100
H1048       H  0.30084318  0.25492789  0.33597265     0.02000
H1049       H  0.28826250  0.22323143  0.35088023     0.02500
H1050       H  0.29232519  0.24705502  0.40006493     0.06000
H1051       H  0.23107658  0.17960686  0.24083486     0.05000
H1052       H  0.21511648  0.20950166  0.25366031    -0.00800
H1053       H  0.23624200  0.19548479  0.30096437     0.00700
H1054       H  0.32274896  0.27432114  0.19373593     0.04300
H1055       H  0.31534499  0.26011580  0.13290792     0.06300
H1056       H  0.33768495  0.24442689  0.17574751     0.07100
C1057       C  0.21141361  0.25791904  0.74642367    -0.22500
C1058       C  0.23625809  0.26411047  0.76301738     0.09500
C1059       C  0.24864411  0.28614050  0.74286384     0.09900
C1060       C  0.23653136  0.30044760  0.70403442    -0.17400
C1061       C  0.21243915  0.29305171  0.68473317    -0.27800
C1062       C  0.19938135  0.27202693  0.70750941     0.18200
C1063       C  0.24854523  0.24738235  0.80218915     0.12200
C1064       C  0.27487408  0.29409797  0.76141256    -0.12200
H1065       H  0.24675449  0.31625497  0.68606345     0.12500
C1066       C  0.17285209  0.26412530  0.69020279    -0.23000
H1067       H  0.20170826  0.24145105  0.76302672     0.08100
C1068       C  0.24197594  0.24979252  0.85394053     0.04500
C1069       C  0.25384799  0.23377778  0.88979569    -0.20200
C1070       C  0.27212131  0.21503385  0.87570520    -0.12500
C1071       C  0.27825246  0.21207812  0.82361198     0.13200
C1072       C  0.26633781  0.22832999  0.78743509    -0.23000
C1073       C  0.22280099  0.26965231  0.87155868    -0.06000
H1074       H  0.24922916  0.23637725  0.92974879     0.14700
C1075       C  0.29780967  0.19289457  0.80511444    -0.16200
H1076       H  0.27116849  0.22632807  0.74748026     0.09000
H1077       H  0.15958836  0.28078886  0.69356946     0.06900
H1078       H  0.17320183  0.25743527  0.65011173     0.08100
H1079       H  0.16505790  0.24809201  0.71359233     0.07100
H1080       H  0.28886516  0.27840466  0.75400491     0.02000
H1081       H  0.27420491  0.29807651  0.80296945     0.02500
H1082       H  0.28178693  0.31179533  0.74190319     0.06000
H1083       H  0.22023172  0.26927577  0.91355567     0.05000
H1084       H  0.20382812  0.26584811  0.85369547    -0.00800
H1085       H  0.22946279  0.28923977  0.86068762     0.00700
H1086       H  0.28855292  0.17931684  0.77791064     0.04300
H1087       H  0.30645139  0.18143922  0.83628548     0.06300
H1088       H  0.31357197  0.20323766  0.78532021     0.07100
C1089       C  0.07182137  0.36899156  0.58528440    -0.22500
C1090       C  0.07002957  0.36744493  0.63847933     0.09500
C1091       C  0.08867036  0.35355727  0.66602355     0.09900
C1092       C  0.10896952  0.34176565  0.63987207    -0.17400
C1093       C  0.11116816  0.34344642  0.58657943    -0.27800
C1094       C  0.09224439  0.35726615  0.55888399     0.18200
C1095       C  0.04822240  0.37995099  0.66503745     0.12200
C1096       C  0.08736977  0.35157218  0.72323694    -0.12200
H1097       H  0.12347342  0.33148778  0.66133558     0.12500
C1098       C  0.09398868  0.36079990  0.50202940    -0.23000
H1099       H  0.05734515  0.37969786  0.56451302     0.08100
C1100       C  0.04875930  0.40621110  0.67903116     0.04500
C1101       C  0.02837270  0.41653809  0.70754615    -0.20200
C1102       C  0.00720273  0.40126703  0.72207131    -0.12500
C1103       C  0.00663177  0.37485218  0.70669213     0.13200
C1104       C  0.02723143  0.36468126  0.67874960    -0.23000
C1105       C  0.07089547  0.42328349  0.66396094    -0.06000
H1106       H  0.02896471  0.43672212  0.71814530     0.14700
C1107       C  0.98445665  0.35700631  0.71832779    -0.16200
H1108       H  0.02709559  0.34453294  0.66755844     0.09000
H1109       H  0.11237478  0.37039951  0.49227687     0.06900
H1110       H  0.07812987  0.37296919  0.48714231     0.08100
H1111       H  0.09284189  0.34178529  0.48263810     0.07100
H1112       H  0.06932046  0.34173422  0.73458482     0.02000
H1113       H  0.08785375  0.37118165  0.74035331     0.02500
H1114       H  0.10373026  0.34040085  0.73898606     0.06000
H1115       H  0.06842231  0.44332846  0.67815323     0.05000
H1116       H  0.07237273  0.42397838  0.62179048    -0.00800
H1117       H  0.08905779  0.41553152  0.67996709     0.00700
H1118       H  0.96652423  0.36458399  0.70099397     0.04300
H1119       H  0.98216370  0.35497859  0.76016494     0.06300
H1120       H  0.98750214  0.33733851  0.70258383     0.07100
C1121       C  0.14357518  0.39808625  0.34376172    -0.22500
C1122       C  0.13386293  0.41991323  0.36850661     0.09500
C1123       C  0.13808047  0.42290420  0.42135989     0.09900
C1124       C  0.15094541  0.40347384  0.44859919    -0.17400
C1125       C  0.15931239  0.38061386  0.42477211    -0.27800
C1126       C  0.15609223  0.37833403  0.37097482     0.18200
C1127       C  0.11820123  0.43889455  0.33933901     0.12200
C1128       C  0.12866403  0.44650783  0.44926537    -0.12200
H1129       H  0.15331039  0.40570445  0.48941279     0.12500
C1130       C  0.16522584  0.35511632  0.34150699    -0.23000
H1131       H  0.14045797  0.39606265  0.30310652     0.08100
C1132       C  0.12953378  0.45762073  0.30759309     0.04500
C1133       C  0.11433106  0.47778608  0.28839260    -0.20200
C1134       C  0.08800730  0.47977737  0.30027703    -0.12500
C1135       C  0.07620782  0.45934932  0.32744897     0.13200
C1136       C  0.09151406  0.43920824  0.34659818    -0.23000
C1137       C  0.15783932  0.45706026  0.29596785    -0.06000
H1138       H  0.12341522  0.49292805  0.26643089     0.14700
C1139       C  0.04788677  0.45923774  0.33912557    -0.16200
H1140       H  0.08283441  0.42426656  0.36976970     0.09000
H1141       H  0.18593423  0.35175407  0.34913285     0.06900
H1142       H  0.16285940  0.35772142  0.29976351     0.08100
H1143       H  0.15380497  0.33789474  0.35229371     0.07100
H1144       H  0.10742168  0.44769286  0.44681902     0.02000
H1145       H  0.13721246  0.46408639  0.43207896     0.02500
H1146       H  0.13401209  0.44608948  0.49024250     0.06000
H1147       H  0.16363742  0.47335595  0.27106044     0.05000
H1148       H  0.16270998  0.43881392  0.27601750    -0.00800
H1149       H  0.16904400  0.45836933  0.33191085     0.00700
H1150       H  0.04208195  0.44164552  0.36030708     0.04300
H1151       H  0.03673241  0.45967313  0.30303230     0.06300
H1152       H  0.04288230  0.47620040  0.36300572     0.07100
C1153       C  0.65451077  0.08829646  0.61941862    -0.22500
C1154       C  0.67081341  0.10559313  0.64482512     0.09500
C1155       C  0.66740811  0.10999087  0.69749026     0.09900
C1156       C  0.64740756  0.09733893  0.72339649    -0.17400
C1157       C  0.63025199  0.08088064  0.69760888    -0.27800
C1158       C  0.63417004  0.07599583  0.64493098     0.18200
C1159       C  0.69215738  0.11793481  0.61615715     0.12200
C1160       C  0.68464755  0.12839085  0.72608657    -0.12200
H1161       H  0.64441901  0.10131232  0.76350811     0.12500
C1162       C  0.61730058  0.05756247  0.61538931    -0.23000
H1163       H  0.65760370  0.08463157  0.57921559     0.08100
C1164       C  0.71593851  0.10538544  0.61064006     0.04500
C1165       C  0.73623610  0.11813938  0.58626769    -0.20200
C1166       C  0.73362798  0.14343749  0.56736746    -0.12500
C1167       C  0.70926204  0.15560517  0.57096697     0.13200
C1168       C  0.68884682  0.14261699  0.59525918    -0.23000
C1169       C  0.72007586  0.07867846  0.63166423    -0.06000
H1170       H  0.75466834  0.10853831  0.58407621     0.14700
C1171       C  0.70448130  0.18209480  0.54938604    -0.16200
H1172       H  0.67032784  0.15197557  0.59904329     0.09000
H1173       H  0.62458856  0.05439931  0.57612796     0.06900
H1174       H  0.59755846  0.06535798  0.61186207     0.08100
H1175       H  0.61673578  0.03857821  0.63489039     0.07100
H1176       H  0.68300487  0.14800916  0.70948889     0.02000
H1177       H  0.70489487  0.12186947  0.72336729     0.02500
H1178       H  0.67945713  0.12959749  0.76704972     0.06000
H1179       H  0.73991121  0.07169596  0.62464255     0.05000
H1180       H  0.70651169  0.06496713  0.61327054    -0.00800
H1181       H  0.71675852  0.07870938  0.67343071     0.00700
H1182       H  0.68391694  0.18759253  0.55214275     0.04300
H1183       H  0.70995284  0.18249266  0.50852080     0.06300
H1184       H  0.71569620  0.19676074  0.57080661     0.07100
C1185       C  0.71173157  0.23856056  0.23736121    -0.22500
C1186       C  0.73204303  0.25229475  0.25994926     0.09500
C1187       C  0.73853811  0.27702011  0.24163771     0.09900
C1188       C  0.72540582  0.28691447  0.19938032    -0.17400
C1189       C  0.70582654  0.27275469  0.17536584    -0.27800
C1190       C  0.69849479  0.24853322  0.19512743     0.18200
C1191       C  0.74641491  0.24039439  0.30253742     0.12200
C1192       C  0.75943825  0.29284965  0.26637898    -0.12200
H1193       H  0.73107168  0.30542400  0.18372484     0.12500
C1194       C  0.67790423  0.23253078  0.16987330    -0.23000
H1195       H  0.70677766  0.21964317  0.25192367     0.08100
C1196       C  0.73558855  0.23858878  0.35139783     0.04500
C1197       C  0.74994415  0.22752425  0.39073203    -0.20200
C1198       C  0.77526397  0.21860631  0.38312188    -0.12500
C1199       C  0.78628331  0.22096664  0.33402674     0.13200
C1200       C  0.77149520  0.23144667  0.29418561    -0.23000
C1201       C  0.70915294  0.24901953  0.36246696    -0.06000
H1202       H  0.74130833  0.22639422  0.42820181     0.14700
C1203       C  0.81337543  0.21256488  0.32304154    -0.16200
H1204       H  0.77964050  0.23306517  0.25632638     0.09000
H1205       H  0.67508142  0.21377187  0.18946885     0.06900
H1206       H  0.68332002  0.22851036  0.12980172     0.08100
H1207       H  0.65939193  0.24310915  0.17056068     0.07100
H1208       H  0.77811345  0.28269372  0.26338048     0.02000
H1209       H  0.75479758  0.29601538  0.30718329     0.02500
H1210       H  0.76156807  0.31200852  0.24796226     0.06000
H1211       H  0.70393130  0.24676669  0.40322857     0.05000
H1212       H  0.69459222  0.23858163  0.33936210    -0.00800
H1213       H  0.70846542  0.26989444  0.35310668     0.00700
H1214       H  0.81840989  0.21519985  0.28227233     0.04300
H1215       H  0.81563048  0.19183132  0.33235097     0.06300
H1216       H  0.82707716  0.22425371  0.34592661     0.07100
C1217       C  0.75260153  0.21351350  0.74275949    -0.22500
C1218       C  0.76576384  0.23568044  0.75875895     0.09500
C1219       C  0.79067143  0.24071815  0.74050801     0.09900
C1220       C  0.80119942  0.22427383  0.70374289    -0.17400
C1221       C  0.78743154  0.20287554  0.68512985    -0.27800
C1222       C  0.76308297  0.19695290  0.70608920     0.18200
C1223       C  0.75392658  0.25204559  0.79814484     0.12200
C1224       C  0.80565270  0.26394072  0.75843944    -0.12200
H1225       H  0.81959321  0.22910964  0.68680588     0.12500
C1226       C  0.74679815  0.17447605  0.68880587    -0.23000
H1227       H  0.73377388  0.20938350  0.75835956     0.08100
C1228       C  0.73506804  0.27077382  0.78705853     0.04500
C1229       C  0.72307801  0.28407596  0.82739771    -0.20200
C1230       C  0.72944933  0.27850992  0.87815337    -0.12500
C1231       C  0.74932370  0.26031023  0.88847265     0.13200
C1232       C  0.76121934  0.24753039  0.84823692    -0.23000
C1233       C  0.72753672  0.27637715  0.73284403    -0.06000
H1234       H  0.70802225  0.29789637  0.81944483     0.14700
C1235       C  0.75836532  0.25363257  0.94153059    -0.16200
H1236       H  0.77589684  0.23321109  0.85585660     0.09000
H1237       H  0.72897278  0.18174024  0.67054624     0.06900
H1238       H  0.74145577  0.16257065  0.72227408     0.08100
H1239       H  0.75662593  0.16159071  0.66165830     0.07100
H1240       H  0.80913963  0.26261419  0.80008451     0.02000
H1241       H  0.79465536  0.28179365  0.75021380     0.02500
H1242       H  0.82457235  0.26541328  0.73915930     0.06000
H1243       H  0.71263861  0.29164450  0.73066945     0.05000
H1244       H  0.71975628  0.25864571  0.71465655    -0.00800
H1245       H  0.74463554  0.28299480  0.71125853     0.00700
H1246       H  0.74307060  0.24336339  0.96263561     0.04300
H1247       H  0.77522744  0.24053212  0.94102923     0.06300
H1248       H  0.76443448  0.27124504  0.96208571     0.07100
C1249       C  0.84288532  0.30227460  0.58931411    -0.22500
C1250       C  0.86878136  0.30041848  0.60348158     0.09500
C1251       C  0.88293761  0.27851781  0.58876423     0.09900
C1252       C  0.87071845  0.25861713  0.56144207    -0.17400
C1253       C  0.84445299  0.25981128  0.54826388    -0.27800
C1254       C  0.83047253  0.28236951  0.56199324     0.18200
C1255       C  0.88076657  0.32169595  0.63356072     0.12200
C1256       C  0.91095979  0.27611566  0.60229677    -0.12200
H1257       H  0.88181210  0.24165167  0.55143334     0.12500
C1258       C  0.80253121  0.28585033  0.54855755    -0.23000
H1259       H  0.83224356  0.31936888  0.60031178     0.08100
C1260       C  0.89135087  0.34353036  0.60949393     0.04500
C1261       C  0.90201327  0.36338980  0.63928209    -0.20200
C1262       C  0.90196828  0.36236939  0.69292362    -0.12500
C1263       C  0.89161515  0.34022756  0.71704568     0.13200
C1264       C  0.88130045  0.32011739  0.68696368    -0.23000
C1265       C  0.89091594  0.34609866  0.55233511    -0.06000
H1266       H  0.90986888  0.38023387  0.62040928     0.14700
C1267       C  0.89021175  0.33814567  0.77423140    -0.16200
H1268       H  0.87308841  0.30326353  0.70517214     0.09000
H1269       H  0.79529623  0.30511692  0.56027221     0.06900
H1270       H  0.79069478  0.27119228  0.56847090     0.08100
H1271       H  0.79988225  0.28413261  0.50669551     0.07100
H1272       H  0.91333677  0.27658869  0.64432485     0.02000
H1273       H  0.92189675  0.29235067  0.58530690     0.02500
H1274       H  0.91929815  0.25778221  0.58793399     0.06000
H1275       H  0.90001272  0.36437763  0.53959493     0.05000
H1276       H  0.87075175  0.34592440  0.53850135    -0.00800
H1277       H  0.90148259  0.32979809  0.53469991     0.00700
H1278       H  0.87904808  0.35456530  0.78998587     0.04300
H1279       H  0.90987145  0.33825780  0.79065318     0.06300
H1280       H  0.88064686  0.32000607  0.78637624     0.07100
C1281       C  0.84420978  0.89854839  0.11153737    -0.22500
C1282       C  0.82511856  0.88592782  0.13954918     0.09500
C1283       C  0.82667522  0.88575167  0.19322346     0.09900
C1284       C  0.84784893  0.89733355  0.21757358    -0.17400
C1285       C  0.86795949  0.90868541  0.18959581    -0.27800
C1286       C  0.86561209  0.90991419  0.13563778     0.18200
C1287       C  0.80383981  0.87260643  0.11206448     0.12200
C1288       C  0.80609548  0.87305174  0.22477630    -0.12200
H1289       H  0.84922821  0.89637873  0.25871730     0.12500
C1290       C  0.88531988  0.92325921  0.10288839    -0.23000
H1291       H  0.84260281  0.89897512  0.07030520     0.08100
C1292       C  0.78237980  0.88619403  0.09359597     0.04500
C1293       C  0.76183636  0.87249680  0.07156318    -0.20200
C1294       C  0.76198146  0.84529676  0.06768800    -0.12500
C1295       C  0.78432705  0.83187457  0.08401846     0.13200
C1296       C  0.80488038  0.84576368  0.10584264    -0.23000
C1297       C  0.78084503  0.91512056  0.09852435    -0.06000
H1298       H  0.74516301  0.88320070  0.05902275     0.14700
C1299       C  0.78678278  0.80297300  0.07974348    -0.16200
H1300       H  0.82167922  0.83554879  0.11952791     0.09000
H1301       H  0.88840775  0.94328155  0.11677230     0.06900
H1302       H  0.87904490  0.92436999  0.06247144     0.08100
H1303       H  0.90369950  0.91247886  0.10351830     0.07100
H1304       H  0.80493123  0.85219411  0.21533004     0.02000
H1305       H  0.78726302  0.88223308  0.21679106     0.02500
H1306       H  0.81006537  0.87486590  0.26622364     0.06000
H1307       H  0.76255738  0.92278556  0.08289609     0.05000
H1308       H  0.79692240  0.92419016  0.07734952    -0.00800
H1309       H  0.78211819  0.92074069  0.13930207     0.00700
H1310       H  0.78396699  0.79689767  0.03951346     0.04300
H1311       H  0.77244278  0.79339012  0.10460199     0.06300
H1312       H  0.80605065  0.79618253  0.09196578     0.07100
C1313       C  0.88576428  0.81828771  0.33911421    -0.22500
C1314       C  0.88881110  0.81615708  0.39193562     0.09500
C1315       C  0.90508100  0.83347771  0.41800783     0.09900
C1316       C  0.91691751  0.85353880  0.39095157    -0.17400
C1317       C  0.91301388  0.85658644  0.33824671    -0.27800
C1318       C  0.89759366  0.83831753  0.31179995     0.18200
C1319       C  0.87434877  0.79591310  0.41941444     0.12200
C1320       C  0.90969525  0.83091741  0.47446569    -0.12200
H1321       H  0.92881327  0.86730258  0.41133613     0.12500
C1322       C  0.89231042  0.84041316  0.25547581    -0.23000
H1323       H  0.87343314  0.80462852  0.31949321     0.08100
C1324       C  0.85023558  0.80097029  0.44164995     0.04500
C1325       C  0.83746670  0.78125706  0.46820267    -0.20200
C1326       C  0.84812467  0.75645482  0.47268638    -0.12500
C1327       C  0.87222294  0.75137202  0.44881757     0.13200
C1328       C  0.88493989  0.77126588  0.42285739    -0.23000
C1329       C  0.83786495  0.82709838  0.43663162    -0.06000
H1330       H  0.81896273  0.78526675  0.48537508     0.14700
C1331       C  0.88458633  0.72502718  0.44864911    -0.16200
H1332       H  0.90332066  0.76760692  0.40485611     0.09000
H1333       H  0.88320416  0.85923422  0.24702895     0.06900
H1334       H  0.87909855  0.82502029  0.24185269     0.08100
H1335       H  0.91051176  0.83859747  0.23384930     0.07100
H1336       H  0.91828678  0.81177902  0.48270391     0.02000
H1337       H  0.89130298  0.83270184  0.49543332     0.02500
H1338       H  0.92299562  0.84603245  0.48893555     0.06000
H1339       H  0.81888363  0.82778285  0.45580733     0.05000
H1340       H  0.83495849  0.83167802  0.39572172    -0.00800
H1341       H  0.85031901  0.84210459  0.45407424     0.00700
H1342       H  0.87125112  0.71070084  0.43154834     0.04300
H1343       H  0.88977427  0.71926196  0.48803517     0.06300
H1344       H  0.90253694  0.72465835  0.42585761     0.07100
C1345       C  0.90602224  0.05195805  0.35553936    -0.22500
C1346       C  0.87922774  0.05243005  0.35013248     0.09500
C1347       C  0.86701660  0.03352501  0.31997182     0.09900
C1348       C  0.88168007  0.01354628  0.29881499    -0.17400
C1349       C  0.90833978  0.01168688  0.30743455    -0.27800
C1350       C  0.92082204  0.03187939  0.33457479     0.18200
C1351       C  0.86421039  0.07227938  0.37799154     0.12200
C1352       C  0.83835676  0.03380783  0.31191349    -0.12200
H1353       H  0.87193592  0.99853095  0.27729236     0.12500
C1354       C  0.94942287  0.03208056  0.34353333    -0.23000
H1355       H  0.91527516  0.06696238  0.37790355     0.08100
C1356       C  0.85969409  0.07029132  0.43079033     0.04500
C1357       C  0.84563649  0.08965100  0.45564237    -0.20200
C1358       C  0.83731252  0.11195899  0.42985894    -0.12500
C1359       C  0.84124865  0.11340540  0.37626521     0.13200
C1360       C  0.85435776  0.09337140  0.35117355    -0.23000
C1361       C  0.87023286  0.04804305  0.46121885    -0.06000
H1362       H  0.84266814  0.08803969  0.49639326     0.14700
C1363       C  0.83219348  0.13594022  0.34480599    -0.16200
H1364       H  0.85772345  0.09453292  0.31052553     0.09000
H1365       H  0.95517499  0.01494203  0.36604615     0.06900
H1366       H  0.95568475  0.04947767  0.36504334     0.08100
H1367       H  0.95962120  0.03210593  0.30642601     0.07100
H1368       H  0.83264707  0.05184508  0.29223828     0.02000
H1369       H  0.82842304  0.03269666  0.34923259     0.02500
H1370       H  0.83182441  0.01726901  0.28818162     0.06000
H1371       H  0.86467289  0.04928532  0.50198973     0.05000
H1372       H  0.89153024  0.04806765  0.45937395    -0.00800
H1373       H  0.86281334  0.02955112  0.44561360     0.00700
H1374       H  0.84321277  0.15353366  0.35512808     0.04300
H1375       H  0.81134566  0.13911918  0.35096699     0.06300
H1376       H  0.83516015  0.13260851  0.30341657     0.07100
C1377       C  0.08881698  0.65683265  0.43541379    -0.22500
C1378       C  0.10775832  0.67232979  0.41327576     0.09500
C1379       C  0.11343377  0.66949940  0.36098346     0.09900
C1380       C  0.10076970  0.65032210  0.33243069    -0.17400
C1381       C  0.08265816  0.63386660  0.35512441    -0.27800
C1382       C  0.07605813  0.63770393  0.40702888     0.18200
C1383       C  0.12026293  0.69250788  0.44488165     0.12200
C1384       C  0.13314374  0.68645262  0.33563075    -0.12200
H1385       H  0.10589004  0.64740794  0.29282803     0.12500
C1386       C  0.05520610  0.62217193  0.43258219    -0.23000
H1387       H  0.08404144  0.65975279  0.47519628     0.08100
C1388       C  0.10964139  0.71735895  0.44816297     0.04500
C1389       C  0.12255962  0.73642534  0.47597182    -0.20200
C1390       C  0.14606139  0.73147374  0.50097805    -0.12500
C1391       C  0.15588708  0.70594080  0.50022549     0.13200
C1392       C  0.14284915  0.68680345  0.47188683    -0.23000
C1393       C  0.08476107  0.72386414  0.42166980    -0.06000
H1394       H  0.11441995  0.75565608  0.47662990     0.14700
C1395       C  0.17976502  0.69853824  0.52920915    -0.16200
H1396       H  0.15047455  0.66736770  0.47011137     0.09000
H1397       H  0.03706453  0.62376567  0.41058044     0.06900
H1398       H  0.05138670  0.62919211  0.47185424     0.08100
H1399       H  0.06082157  0.60161259  0.43559000     0.07100
H1400       H  0.15207126  0.68392810  0.35450131     0.02000
H1401       H  0.12731630  0.70698926  0.33859462     0.02500
H1402       H  0.13533680  0.68165617  0.29460633     0.06000
H1403       H  0.07906987  0.74424656  0.42821720     0.05000
H1404       H  0.06915799  0.71127781  0.43623551    -0.00800
H1405       H  0.08672608  0.72087043  0.37999201     0.00700
H1406       H  0.17748805  0.70356026  0.57011183     0.04300
H1407       H  0.19671204  0.70867295  0.51334025     0.06300
H1408       H  0.18358869  0.67749611  0.52667060     0.07100
C1409       C  0.23195531  0.77239380  0.75157240    -0.22500
C1410       C  0.23069212  0.74541574  0.75524966     0.09500
C1411       C  0.21428763  0.73151946  0.72216269     0.09900
C1412       C  0.20074940  0.74480132  0.68408108    -0.17400
C1413       C  0.20308638  0.77161747  0.67872592    -0.27800
C1414       C  0.21826709  0.78568058  0.71373691     0.18200
C1415       C  0.24509753  0.73243670  0.79670998     0.12200
C1416       C  0.21179089  0.70262724  0.72588230    -0.12200
H1417       H  0.18953450  0.73403172  0.65636380     0.12500
C1418       C  0.22049941  0.81464586  0.71163598    -0.23000
H1419       H  0.24383437  0.78312949  0.77821687     0.08100
C1420       C  0.27184168  0.72793339  0.79446015     0.04500
C1421       C  0.28456799  0.71751581  0.83722192    -0.20200
C1422       C  0.27107743  0.71178434  0.88217896    -0.12500
C1423       C  0.24391215  0.71497153  0.88270512     0.13200
C1424       C  0.23148547  0.72537396  0.84016635    -0.23000
C1425       C  0.28684117  0.73428420  0.74714189    -0.06000
H1426       H  0.30519888  0.71478893  0.83619800     0.14700
C1427       C  0.22745981  0.70710727  0.92734502    -0.16200
H1428       H  0.21090108  0.72855261  0.84108299     0.09000
H1429       H  0.24078461  0.82020327  0.70467322     0.06900
H1430       H  0.21422703  0.82299084  0.74857351     0.08100
H1431       H  0.20837679  0.82321988  0.68127755     0.07100
H1432       H  0.20392637  0.69725674  0.76366882     0.02000
H1433       H  0.23092159  0.69354304  0.72094319     0.02500
H1434       H  0.19868724  0.69475307  0.69620810     0.06000
H1435       H  0.30747029  0.72927445  0.75135158     0.05000
H1436       H  0.28546095  0.75524296  0.73899751    -0.00800
H1437       H  0.27894689  0.72326060  0.71431848     0.00700
H1438       H  0.20664642  0.70889550  0.91868879     0.04300
H1439       H  0.23130689  0.71966959  0.96074023     0.06300
H1440       H  0.23117038  0.68661084  0.93685999     0.07100
C1441       C  0.25996588  0.73751555  0.35641621    -0.22500
C1442       C  0.25706035  0.74515787  0.30602684     0.09500
C1443       C  0.24147566  0.76662553  0.29416225     0.09900
C1444       C  0.22911279  0.78018351  0.33379309    -0.17400
C1445       C  0.23097778  0.77169851  0.38444626    -0.27800
C1446       C  0.24665887  0.74980092  0.39563664     0.18200
C1447       C  0.26775538  0.72784816  0.26665788     0.12200
C1448       C  0.23740067  0.77462254  0.23967456    -0.12200
H1449       H  0.21705380  0.79660050  0.32498061     0.12500
C1450       C  0.24931417  0.73829017  0.44828408    -0.23000
H1451       H  0.27168400  0.72074332  0.36464112     0.08100
C1452       C  0.29264584  0.73098047  0.24615761     0.04500
C1453       C  0.30132430  0.71344620  0.20908754    -0.20200
C1454       C  0.28561249  0.69308753  0.19223174    -0.12500
C1455       C  0.26143246  0.68914899  0.21525444     0.13200
C1456       C  0.25288141  0.70648628  0.25233903    -0.23000
C1457       C  0.31001123  0.75303471  0.26105957    -0.06000
H1458       H  0.31949293  0.71699267  0.19023156     0.14700
C1459       C  0.24363301  0.66758178  0.19928211    -0.16200
H1460       H  0.23410617  0.70371046  0.26931884     0.09000
H1461       H  0.26365622  0.72245956  0.44941173     0.06900
H1462       H  0.23075270  0.72984650  0.46046809     0.08100
H1463       H  0.25571820  0.75297306  0.47611395     0.07100
H1464       H  0.22857573  0.75847574  0.21790242     0.02000
H1465       H  0.25612752  0.77969936  0.22217093     0.02500
H1466       H  0.22449761  0.79160052  0.23678991     0.06000
H1467       H  0.31452802  0.76477912  0.22687028     0.05000
H1468       H  0.32818375  0.74529220  0.27704855    -0.00800
H1469       H  0.30129741  0.76594229  0.28996926     0.00700
H1470       H  0.23851846  0.65579606  0.23305494     0.04300
H1471       H  0.25241635  0.65448041  0.17076219     0.06300
H1472       H  0.22580451  0.67580046  0.18267433     0.07100
C1473       C  0.10306689  0.84787571  0.34214445    -0.22500
C1474       C  0.08239768  0.86031561  0.36576067     0.09500
C1475       C  0.08109676  0.86084184  0.41942311     0.09900
C1476       C  0.10059792  0.84917266  0.44834413    -0.17400
C1477       C  0.12195534  0.83743512  0.42515857    -0.27800
C1478       C  0.12294537  0.83653963  0.37094315     0.18200
C1479       C  0.06160976  0.87178673  0.33401178     0.12200
C1480       C  0.05934643  0.87429434  0.44621827    -0.12200
H1481       H  0.09946179  0.84997373  0.48953225     0.12500
C1482       C  0.14448476  0.82336507  0.34273781    -0.23000
H1483       H  0.10368569  0.84719173  0.30089932     0.08100
C1484       C  0.06310332  0.89714694  0.31481198     0.04500
C1485       C  0.04173493  0.90790085  0.28959708    -0.20200
C1486       C  0.01864778  0.89398703  0.28342864    -0.12500
C1487       C  0.01763739  0.86809649  0.30186013     0.13200
C1488       C  0.03919551  0.85745131  0.32625406    -0.23000
C1489       C  0.08703033  0.91306172  0.32225313    -0.06000
H1490       H  0.04287307  0.92760479  0.27607070     0.14700
C1491       C  0.99378612  0.85155477  0.29850607    -0.16200
H1492       H  0.03828499  0.83799849  0.34128788     0.09000
H1493       H  0.16280005  0.83389508  0.34894856     0.06900
H1494       H  0.14096700  0.82289846  0.30099281     0.08100
H1495       H  0.14637142  0.80311341  0.35596538     0.07100
H1496       H  0.04076733  0.86527559  0.43537817     0.02000
H1497       H  0.05918272  0.89496298  0.43525038     0.02500
H1498       H  0.06129127  0.87320626  0.48830024     0.06000
H1499       H  0.08503893  0.93260478  0.30543267     0.05000
H1500       H  0.10354662  0.90333365  0.30372004    -0.00800
H1501       H  0.09108626  0.91530926  0.36357245     0.00700
H1502       H  0.99677501  0.83212018  0.31524221     0.04300
H1503       H  0.98822524  0.84868428  0.25803714     0.06300
H1504       H  0.97787758  0.86075479  0.31996825     0.07100
C1505       C  0.11328098  0.17696753  0.68946865    -0.22500
C1506       C  0.11618965  0.17460675  0.63659487     0.09500
C1507       C  0.10738772  0.15224430  0.61156435     0.09900
C1508       C  0.09646017  0.13232215  0.64018606    -0.17400
C1509       C  0.09441521  0.13392129  0.69360235    -0.27800
C1510       C  0.10244618  0.15692071  0.71848186     0.18200
C1511       C  0.12869462  0.19566777  0.60786132     0.12200
C1512       C  0.11003477  0.14917437  0.55469520    -0.12200
H1513       H  0.09005882  0.11503716  0.62058750     0.12500
C1514       C  0.10050200  0.16033525  0.77537860    -0.23000
H1515       H  0.11992236  0.19444321  0.70811144     0.08100
C1516       C  0.11424493  0.21581657  0.58646113     0.04500
C1517       C  0.12675608  0.23490825  0.55807863    -0.20200
C1518       C  0.15364401  0.23495552  0.55177402    -0.12500
C1519       C  0.16815405  0.21456936  0.57392289     0.13200
C1520       C  0.15534319  0.19508000  0.60111499    -0.23000
C1521       C  0.08565461  0.21745647  0.59460379    -0.06000
H1522       H  0.11534958  0.25036286  0.54202017     0.14700
C1523       C  0.19704372  0.21326835  0.57074302    -0.16200
H1524       H  0.16618492  0.17940052  0.61794530     0.09000
H1525       H  0.08007791  0.15919805  0.78725006     0.06900
H1526       H  0.10805663  0.17937788  0.78793030     0.08100
H1527       H  0.11183081  0.14517623  0.79503637     0.07100
H1528       H  0.13062221  0.15012792  0.54393948     0.02000
H1529       H  0.09945768  0.16479870  0.53490038     0.02500
H1530       H  0.10220907  0.13040762  0.54121073     0.06000
H1531       H  0.07722486  0.23457234  0.57548854     0.05000
H1532       H  0.08154455  0.21896492  0.63599535    -0.00800
H1533       H  0.07609867  0.19996337  0.57911939     0.00700
H1534       H  0.20568876  0.23030678  0.58992360     0.04300
H1535       H  0.20314486  0.21247931  0.53027598     0.06300
H1536       H  0.20478415  0.19584215  0.58992779     0.07100
C1537       C  0.18746667  0.15023057  0.96485047    -0.22500
C1538       C  0.18817652  0.12321552  0.96285245     0.09500
C1539       C  0.20874253  0.10999662  0.98569028     0.09900
C1540       C  0.22927126  0.12416552  0.00616044    -0.17400
C1541       C  0.23020640  0.15135732  0.00299321    -0.27800
C1542       C  0.20819168  0.16456354  0.98468663     0.18200
C1543       C  0.16886921  0.10943314  0.93135706     0.12200
C1544       C  0.20943792  0.08093014  0.98672634    -0.12200
H1545       H  0.24551330  0.11370149  0.02163020     0.12500
C1546       C  0.20669998  0.19355791  0.98326099    -0.23000
H1547       H  0.17124575  0.16016564  0.94793198     0.08100
C1548       C  0.14399502  0.10412350  0.94924022     0.04500
C1549       C  0.12603065  0.09269321  0.91619024    -0.20200
C1550       C  0.13214168  0.08681531  0.86504696    -0.12500
C1551       C  0.15757544  0.09160902  0.84782282     0.13200
C1552       C  0.17553370  0.10266247  0.88143436    -0.23000
C1553       C  0.13638898  0.11079158  0.00299904    -0.06000
H1554       H  0.10681622  0.08907367  0.93025163     0.14700
C1555       C  0.16604204  0.08603375  0.79400540    -0.16200
H1556       H  0.19483945  0.10682616  0.86827008     0.09000
H1557       H  0.18763318  0.20033348  0.96979942     0.06900
H1558       H  0.22130008  0.20125440  0.95665765     0.08100
H1559       H  0.20986525  0.20152492  0.02207633     0.07100
H1560       H  0.20943663  0.07318837  0.94726710     0.02000
H1561       H  0.19232400  0.07350352  0.00719230     0.02500
H1562       H  0.22686554  0.07361541  0.00640496     0.06000
H1563       H  0.11618723  0.10526339  0.01106613     0.05000
H1564       H  0.13832622  0.13189522  0.00927550    -0.00800
H1565       H  0.14902240  0.10045153  0.03025818     0.00700
H1566       H  0.15484060  0.09796106  0.76681366     0.04300
H1567       H  0.16339746  0.06522310  0.78530680     0.06300
H1568       H  0.18665589  0.09068453  0.78812154     0.07100
C1569       C  0.00043471  0.96541175  0.04417629    -0.22500
C1570       C  0.99520864  0.99179219  0.03856251     0.09500
C1571       C  0.97887912  0.00424438  0.07342431     0.09900
C1572       C  0.96833675  0.99009498  0.11366755    -0.17400
C1573       C  0.97392179  0.96373478  0.12048900    -0.27800
C1574       C  0.99009958  0.95117838  0.08490001     0.18200
C1575       C  0.00604401  0.00585674  0.99455187     0.12200
C1576       C  0.97301682  0.03261487  0.06874119    -0.12200
H1577       H  0.95604449  0.99991076  0.14072197     0.12500
C1578       C  0.99737631  0.92320277  0.09047082    -0.23000
H1579       H  0.01288172  0.95602469  0.01677485     0.08100
C1580       C  0.03127254  0.01595108  0.99499751     0.04500
C1581       C  0.04057857  0.02875188  0.95153332    -0.20200
C1582       C  0.02500908  0.03167864  0.90826354    -0.12500
C1583       C  0.99956785  0.02225102  0.90860017     0.13200
C1584       C  0.99039673  0.00939999  0.95174966    -0.23000
C1585       C  0.04818869  0.01323363  0.04127025    -0.06000
H1586       H  0.06012240  0.03597864  0.95086415     0.14700
C1587       C  0.98204937  0.02588674  0.86340214    -0.16200
H1588       H  0.97092629  0.00190814  0.95210528     0.09000
H1589       H  0.01074743  0.91688998  0.05999378     0.06900
H1590       H  0.97992708  0.91092721  0.08800024     0.08100
H1591       H  0.00707090  0.92011795  0.12768985     0.07100
H1592       H  0.96329043  0.03645497  0.03187299     0.02000
H1593       H  0.99114076  0.04390371  0.07060681     0.02500
H1594       H  0.96024730  0.03944102  0.09979756     0.06000
H1595       H  0.06729325  0.02230342  0.03537966     0.05000
H1596       H  0.05116601  0.99249736  0.04994132    -0.00800
H1597       H  0.03894881  0.02272702  0.07445954     0.00700
H1598       H  0.98998228  0.01576242  0.82965258     0.04300
H1599       H  0.98020574  0.04677565  0.85480683     0.06300
H1600       H  0.96252797  0.01806740  0.87066726     0.07100
C1601       C  0.02796861  0.02365262  0.52656919    -0.22500
C1602       C  0.02025940  0.99791331  0.53458712     0.09500
C1603       C  0.02827498  0.98505374  0.57926658     0.09900
C1604       C  0.04308366  0.99837722  0.61521032    -0.17400
C1605       C  0.04919382  0.02450526  0.60904621    -0.27800
C1606       C  0.04188681  0.03732031  0.56398068     0.18200
C1607       C  0.00337056  0.98472766  0.49687330     0.12200
C1608       C  0.01979982  0.95785825  0.59117956    -0.12200
H1609       H  0.04828484  0.98888538  0.65034574     0.12500
C1610       C  0.04775714  0.06542121  0.55530440    -0.23000
H1611       H  0.02229995  0.03340501  0.49181775     0.08100
C1612       C  0.97758090  0.99231828  0.48853600     0.04500
C1613       C  0.96244891  0.97869957  0.45295759    -0.20200
C1614       C  0.97242406  0.95745277  0.42640361    -0.12500
C1615       C  0.99747305  0.94864294  0.43823672     0.13200
C1616       C  0.01289302  0.96295319  0.47158163    -0.23000
C1617       C  0.96600720  0.01478743  0.51679177    -0.06000
H1618       H  0.94340036  0.98562426  0.44361306     0.14700
C1619       C  0.00854839  0.92416906  0.41617466    -0.16200
H1620       H  0.03252336  0.95685328  0.47834215     0.09000
H1621       H  0.02953795  0.07632698  0.55115232     0.06900
H1622       H  0.05917825  0.06756339  0.51988527     0.08100
H1623       H  0.05894051  0.07409198  0.58706197     0.07100
H1624       H  0.02809640  0.94407503  0.56342624     0.02000
H1625       H  0.99851293  0.95661226  0.58993935     0.02500
H1626       H  0.02616930  0.95171072  0.62968835     0.06000
H1627       H  0.94541944  0.01742792  0.50696726     0.05000
H1628       H  0.97622972  0.03288042  0.50693156    -0.00800
H1629       H  0.96742773  0.01145493  0.55847698     0.00700
H1630       H  0.01473343  0.91140477  0.44778243     0.04300
H1631       H  0.02543514  0.92883193  0.39211445     0.06300
H1632       H  0.99446125  0.91304887  0.39317197     0.07100
C1633       C  0.92474988  0.12435753  0.59050118    -0.22500
C1634       C  0.92884512  0.13134533  0.64151729     0.09500
C1635       C  0.91323166  0.15041949  0.66405728     0.09900
C1636       C  0.89283327  0.16093401  0.63604215    -0.17400
C1637       C  0.88803074  0.15335269  0.58554630    -0.27800
C1638       C  0.90456411  0.13522346  0.56208647     0.18200
C1639       C  0.94969889  0.11866160  0.67074997     0.12200
C1640       C  0.91771909  0.15925129  0.71806761    -0.12200
H1641       H  0.88015848  0.17480600  0.65402512     0.12500
C1642       C  0.90018742  0.12619613  0.50826283    -0.23000
H1643       H  0.93710597  0.10999967  0.57326225     0.08100
C1644       C  0.94695869  0.09362850  0.69110732     0.04500
C1645       C  0.96714659  0.08288133  0.71972709    -0.20200
C1646       C  0.99011614  0.09657972  0.72844975    -0.12500
C1647       C  0.99274220  0.12176969  0.70716247     0.13200
C1648       C  0.97245298  0.13232347  0.67891695    -0.23000
C1649       C  0.92265718  0.07836651  0.68289383    -0.06000
H1650       H  0.96498283  0.06361426  0.73506876     0.14700
C1651       C  0.01694268  0.13770827  0.71211863    -0.16200
H1652       H  0.97433339  0.15146360  0.66267948     0.09000
H1653       H  0.88079525  0.11763257  0.50525452     0.06900
H1654       H  0.91434888  0.11132236  0.49655699     0.08100
H1655       H  0.90179956  0.14270896  0.48161409     0.07100
H1656       H  0.93704992  0.16815326  0.72145192     0.02000
H1657       H  0.91640766  0.14254281  0.74433059     0.02500
H1658       H  0.90335148  0.17384203  0.73014692     0.06000
H1659       H  0.92349655  0.05925843  0.70189611     0.05000
H1660       H  0.91956658  0.07506777  0.64153090    -0.00800
H1661       H  0.90605865  0.08915719  0.69865109     0.00700
H1662       H  0.01543814  0.15641113  0.69174604     0.04300
H1663       H  0.03339191  0.12711808  0.69528730     0.06300
H1664       H  0.02077172  0.14223805  0.75278371     0.07100
C1665       C  0.10381512  0.93709396  0.70318037    -0.22500
C1666       C  0.12887942  0.94091561  0.68511914     0.09500
C1667       C  0.14126177  0.96464299  0.69379967     0.09900
C1668       C  0.12809115  0.98433881  0.71920081    -0.17400
C1669       C  0.10232017  0.98140293  0.73470927    -0.27800
C1670       C  0.09025434  0.95706651  0.72773676     0.18200
C1671       C  0.14153136  0.92026738  0.65521986     0.12200
C1672       C  0.16806761  0.96953610  0.67443743    -0.12200
H1673       H  0.13768588  0.00275482  0.72405552     0.12500
C1674       C  0.06337103  0.95176460  0.74623245    -0.23000
H1675       H  0.09461550  0.91859484  0.69675138     0.08100
C1676       C  0.15651677  0.90109634  0.67884047     0.04500
C1677       C  0.16770410  0.88171050  0.64881292    -0.20200
C1678       C  0.16408651  0.88089289  0.59564983    -0.12500
C1679       C  0.14945315  0.90054459  0.57200259     0.13200
C1680       C  0.13851678  0.92007868  0.60214736    -0.23000
C1681       C  0.16013672  0.90078445  0.73579655    -0.06000
H1682       H  0.17864958  0.86655611  0.66718919     0.14700
C1683       C  0.14396059  0.90024711  0.51564225    -0.16200
H1684       H  0.12701264  0.93501265  0.58442052     0.09000
H1685       H  0.05794516  0.93120275  0.74079094     0.06900
H1686       H  0.04922528  0.96347203  0.72488740     0.08100
H1687       H  0.06202050  0.95625809  0.78751453     0.07100
H1688       H  0.16841530  0.96754964  0.63231820     0.02000
H1689       H  0.18159340  0.95542562  0.69140027     0.02500
H1690       H  0.17492489  0.98923396  0.68429115     0.06000
H1691       H  0.17228837  0.88434789  0.74818725     0.05000
H1692       H  0.14118551  0.89901931  0.75479360    -0.00800
H1693       H  0.16955426  0.91892204  0.74848375     0.00700
H1694       H  0.13410218  0.88202422  0.50520249     0.04300
H1695       H  0.16217396  0.90190633  0.49402201     0.06300
H1696       H  0.13134521  0.91648451  0.50408564     0.07100
C1697       C  0.38213436  0.81186411  0.19487746    -0.22500
C1698       C  0.37777432  0.81445577  0.14242171     0.09500
C1699       C  0.38610117  0.83681049  0.11703634     0.09900
C1700       C  0.39784316  0.85659664  0.14502667    -0.17400
C1701       C  0.40118869  0.85486445  0.19822852    -0.27800
C1702       C  0.39378870  0.83178400  0.22327431     0.18200
C1703       C  0.36345989  0.79409994  0.11477431     0.12200
C1704       C  0.38205697  0.83999204  0.06049797    -0.12200
H1705       H  0.40378077  0.87392026  0.12515065     0.12500
C1706       C  0.39717912  0.82820215  0.27984159    -0.23000
H1707       H  0.37577920  0.79442301  0.21380359     0.08100
C1708       C  0.37614695  0.77302172  0.09218170     0.04500
C1709       C  0.36178652  0.75474687  0.06479143    -0.20200
C1710       C  0.33495355  0.75683194  0.06033577    -0.12500
C1711       C  0.32232106  0.77827307  0.08232006     0.13200
C1712       C  0.33680788  0.79670531  0.10920119    -0.23000
C1713       C  0.40474644  0.76965220  0.09767002    -0.06000
H1714       H  0.37146329  0.73817771  0.04852598     0.14700
C1715       C  0.29379245  0.78221754  0.07647955    -0.16200
H1716       H  0.32735090  0.81325939  0.12604968     0.09000
H1717       H  0.39004602  0.80908525  0.29264979     0.06900
H1718       H  0.38626912  0.84323026  0.30082474     0.08100
H1719       H  0.41787614  0.82942798  0.28986559     0.07100
H1720       H  0.36122176  0.83927111  0.05153482     0.02000
H1721       H  0.39197501  0.82426457  0.03963043     0.02500
H1722       H  0.38972738  0.85869351  0.04656081     0.06000
H1723       H  0.41162357  0.75209385  0.07759542     0.05000
H1724       H  0.40982534  0.76784090  0.13860781    -0.00800
H1725       H  0.41488371  0.78658967  0.08143177     0.00700
H1726       H  0.28310408  0.76675862  0.09651939     0.04300
H1727       H  0.28857939  0.78211895  0.03542613     0.06300
H1728       H  0.28755903  0.80093843  0.09296247     0.07100
C1729       C  0.50818540  0.98267111  0.45007524    -0.22500
C1730       C  0.49344493  0.98502186  0.49435017     0.09500
C1731       C  0.46938606  0.97243994  0.49739530     0.09900
C1732       C  0.46014496  0.95857256  0.45491921    -0.17400
C1733       C  0.47466711  0.95700759  0.41006298    -0.27800
C1734       C  0.49918499  0.96864293  0.40805121     0.18200
C1735       C  0.50448118  0.99977624  0.53761504     0.12200
C1736       C  0.45363374  0.97358522  0.54537803    -0.12200
H1737       H  0.44136351  0.94959731  0.45616510     0.12500
C1738       C  0.51606007  0.96598257  0.36172165    -0.23000
H1739       H  0.52686910  0.99188727  0.44851213     0.08100
C1740       C  0.52417379  0.98910906  0.56773101     0.04500
C1741       C  0.53488714  0.00383345  0.60713738    -0.20200
C1742       C  0.52588910  0.02875716  0.61859917    -0.12500
C1743       C  0.50619800  0.03954945  0.58818433     0.13200
C1744       C  0.49595165  0.02500052  0.54747955    -0.23000
C1745       C  0.53317013  0.96176673  0.55964207    -0.06000
H1746       H  0.54971693  0.99531949  0.63081274     0.14700
C1747       C  0.49501287  0.06564809  0.60006701    -0.16200
H1748       H  0.48087523  0.03306177  0.52392201     0.09000
H1749       H  0.53509199  0.97524513  0.36756450     0.06900
H1750       H  0.50685631  0.97527864  0.32835323     0.08100
H1751       H  0.51927356  0.94522346  0.35333104     0.07100
H1752       H  0.44863759  0.99391768  0.55421574     0.02000
H1753       H  0.46480598  0.96539452  0.57758204     0.02500
H1754       H  0.43550133  0.96242110  0.54159021     0.06000
H1755       H  0.54815418  0.95618536  0.58769617     0.05000
H1756       H  0.54143585  0.95959745  0.52095905    -0.00800
H1757       H  0.51671063  0.94829047  0.56389088     0.00700
H1758       H  0.51016942  0.08064994  0.59707704     0.04300
H1759       H  0.48698068  0.06570628  0.63924462     0.06300
H1760       H  0.47931434  0.07076771  0.57324215     0.07100
C1761       C  0.45646904  0.98845517  0.04284343    -0.22500
C1762       C  0.47792088  0.97514784  0.02437014     0.09500
C1763       C  0.48398303  0.95065398  0.04400877     0.09900
C1764       C  0.46940479  0.94081011  0.08433750    -0.17400
C1765       C  0.44917984  0.95505253  0.10596422    -0.27800
C1766       C  0.44203975  0.97889855  0.08369432     0.18200
C1767       C  0.49406639  0.98782372  0.98553739     0.12200
C1768       C  0.50623550  0.93531409  0.02346621    -0.12200
H1769       H  0.47496547  0.92262680  0.10155431     0.12500
C1770       C  0.42073637  0.99580676  0.10349847    -0.23000
H1771       H  0.45170225  0.00714851  0.02677167     0.08100
C1772       C  0.48584275  0.98925466  0.93468292     0.04500
C1773       C  0.50024014  0.00368170  0.90018185    -0.20200
C1774       C  0.52292769  0.01677417  0.91485590    -0.12500
C1775       C  0.53175096  0.01440491  0.96546093     0.13200
C1776       C  0.51703621  0.00005294  0.00044671    -0.23000
C1777       C  0.46190712  0.97549754  0.91673168    -0.06000
H1778       H  0.49366099  0.00452906  0.86103625     0.14700
C1779       C  0.55596828  0.02755492  0.98301846    -0.16200
H1780       H  0.52316753  0.99873615  0.03986172     0.09000
H1781       H  0.40638481  0.99895683  0.07280060     0.06900
H1782       H  0.42874189  0.01482448  0.11496359     0.08100
H1783       H  0.41049187  0.98765095  0.13645938     0.07100
H1784       H  0.52439400  0.94622477  0.02894226     0.02000
H1785       H  0.50331067  0.93156480  0.98219661     0.02500
H1786       H  0.50822027  0.91644394  0.04309104     0.06000
H1787       H  0.45855763  0.97822495  0.87528202     0.05000
H1788       H  0.44487791  0.98301580  0.93728306    -0.00800
H1789       H  0.46375087  0.95448662  0.92405648     0.00700
H1790       H  0.55948921  0.02441031  0.02429138     0.04300
H1791       H  0.55448184  0.04864769  0.97632324     0.06300
H1792       H  0.57266348  0.01974528  0.96181447     0.07100
C1793       C  0.35457106  0.06658434  0.10572349    -0.22500
C1794       C  0.35898235  0.06993659  0.15803923     0.09500
C1795       C  0.35168252  0.09313580  0.18172248     0.09900
C1796       C  0.34037420  0.11267864  0.15245304    -0.17400
C1797       C  0.33672227  0.11004908  0.09935960    -0.27800
C1798       C  0.34376212  0.08636709  0.07585278     0.18200
C1799       C  0.37191624  0.04914914  0.18715144     0.12200
C1800       C  0.35628075  0.09741618  0.23782139    -0.12200
H1801       H  0.33509921  0.13052336  0.17125948     0.12500
C1802       C  0.34090955  0.08189806  0.01937001    -0.23000
H1803       H  0.36028003  0.04856920  0.08798465     0.08100
C1804       C  0.35806751  0.02813200  0.20693048     0.04500
C1805       C  0.37130896  0.00826996  0.23185514    -0.20200
C1806       C  0.39832119  0.00850074  0.23671232    -0.12500
C1807       C  0.41199722  0.03052130  0.21917050     0.13200
C1808       C  0.39852726  0.05052643  0.19473544    -0.23000
C1809       C  0.32933627  0.02642897  0.20079417    -0.06000
H1810       H  0.36041970  0.99181556  0.24527999     0.14700
C1811       C  0.44072752  0.03312235  0.22461678    -0.16200
H1812       H  0.40887413  0.06705444  0.18009366     0.09000
H1813       H  0.34751091  0.06234678  0.00801619     0.06900
H1814       H  0.35263461  0.09613690  0.99803375     0.08100
H1815       H  0.32041062  0.08362666  0.00821566     0.07100
H1816       H  0.37715555  0.09622601  0.24619657     0.02000
H1817       H  0.34600008  0.08246420  0.26014720     0.02500
H1818       H  0.34939234  0.11664909  0.25050112     0.06000
H1819       H  0.32140163  0.00870473  0.21858219     0.05000
H1820       H  0.32425869  0.02611440  0.15969957    -0.00800
H1821       H  0.32014807  0.04337631  0.21912183     0.00700
H1822       H  0.45062479  0.01848926  0.20083920     0.04300
H1823       H  0.44631241  0.03079888  0.26519395     0.06300
H1824       H  0.44761552  0.05233783  0.21185052     0.07100
C1825       C  0.31135256  0.83770031  0.46218141    -0.22500
C1826       C  0.31208267  0.86454068  0.46810611     0.09500
C1827       C  0.29392232  0.87670106  0.49963767     0.09900
C1828       C  0.27392387  0.86200991  0.52068161    -0.17400
C1829       C  0.27118463  0.83550033  0.50972375    -0.27800
C1830       C  0.29114418  0.82296405  0.48250753     0.18200
C1831       C  0.33058350  0.87955449  0.43709300     0.12200
C1832       C  0.29500880  0.90534319  0.50913242    -0.12200
H1833       H  0.25920425  0.87174732  0.54261793     0.12500
C1834       C  0.29042882  0.79460579  0.47084501    -0.23000
H1835       H  0.32580157  0.82848878  0.43869899     0.08100
C1836       C  0.35609207  0.88335116  0.45294796     0.04500
C1837       C  0.37348289  0.89536654  0.41984043    -0.20200
C1838       C  0.36618542  0.90345368  0.37050557    -0.12500
C1839       C  0.34004995  0.90067613  0.35577593     0.13200
C1840       C  0.32266136  0.88877036  0.38938602    -0.23000
C1841       C  0.36505375  0.87425820  0.50446819    -0.06000
H1842       H  0.39322227  0.89755804  0.43226835     0.14700
C1843       C  0.33018401  0.90963743  0.30476728    -0.16200
H1844       H  0.30286817  0.88590044  0.37785207     0.09000
H1845       H  0.30798967  0.78806578  0.45065117     0.06900
H1846       H  0.27384129  0.79058621  0.44563733     0.08100
H1847       H  0.28894442  0.78345960  0.50679291     0.07100
H1848       H  0.29306474  0.91586764  0.47254310     0.02000
H1849       H  0.31363799  0.91049964  0.52710873     0.02500
H1850       H  0.27937205  0.91180429  0.53486779     0.06000
H1851       H  0.38565860  0.87875615  0.51105918     0.05000
H1852       H  0.36248757  0.85305026  0.50750197    -0.00800
H1853       H  0.35371016  0.88386919  0.53479039     0.00700
H1854       H  0.33938625  0.89843895  0.27369860     0.04300
H1855       H  0.33423280  0.93053751  0.29997621     0.06300
H1856       H  0.30910416  0.90685604  0.30110607     0.07100
C1857       C  0.52388974  0.85228777  0.18639683    -0.22500
C1858       C  0.54652044  0.86570714  0.17604948     0.09500
C1859       C  0.55010717  0.89072594  0.19616627     0.09900
C1860       C  0.53032730  0.90226832  0.22454312    -0.17400
C1861       C  0.50713906  0.88917069  0.23410902    -0.27800
C1862       C  0.50421101  0.86343114  0.21539253     0.18200
C1863       C  0.56622202  0.85319181  0.14378845     0.12200
C1864       C  0.57494341  0.90509981  0.18810066    -0.12200
H1865       H  0.53295228  0.92170537  0.23888576     0.12500
C1866       C  0.48035783  0.84740584  0.22408241    -0.23000
H1867       H  0.52153014  0.83301481  0.17099689     0.08100
C1868       C  0.58231867  0.83369432  0.16315891     0.04500
C1869       C  0.60251065  0.82454760  0.13303124    -0.20200
C1870       C  0.60693034  0.83422482  0.08382467    -0.12500
C1871       C  0.58988302  0.85285847  0.06339307     0.13200
C1872       C  0.56954610  0.86181845  0.09363994    -0.23000
C1873       C  0.57890031  0.82332763  0.21631307    -0.06000
H1874       H  0.61569306  0.81049452  0.14894610     0.14700
C1875       C  0.59329498  0.86523533  0.01185498    -0.16200
H1876       H  0.55684020  0.87661298  0.07882823     0.09000
H1877       H  0.48184114  0.82795214  0.20651906     0.06900
H1878       H  0.46343705  0.85700703  0.20672709     0.08100
H1879       H  0.47731114  0.84450623  0.26553602     0.07100
H1880       H  0.57811731  0.90837968  0.14682853     0.02000
H1881       H  0.59115552  0.89365949  0.20373527     0.02500
H1882       H  0.57486842  0.92417996  0.20742758     0.06000
H1883       H  0.59363025  0.80859973  0.22578685     0.05000
H1884       H  0.55974022  0.81411228  0.21988273    -0.00800
H1885       H  0.58053893  0.83929752  0.24439105     0.00700
H1886       H  0.57606929  0.86134305  0.98802591     0.04300
H1887       H  0.61029024  0.85840827  0.99077049     0.06300
H1888       H  0.59540353  0.88643539  0.01663303     0.07100
loop_ 
_geom_bond_atom_site_label_1 
_geom_bond_atom_site_label_2 
_geom_bond_distance 
_geom_bond_site_symmetry_2 
_ccdc_geom_bond_type 
O1           C16   1.261       .  A
O1           Al9   1.884       .  S
C2           O12   1.253       .  A
C2            O3   1.269       .  A
C2         C1861   1.494       .  S
O3           Al5   1.946       .  S
O4            C6   1.254       .  A
O4           Al5   1.857       .  S
Al5          O13   1.870       .  S
Al5          O15   1.944       .  S
Al5          O14   1.773       .  S
C6           O19   1.269       .  A
C6         C1765   1.473       .  S
O7           C17   1.258       .  A
O7           Al9   1.869       .  S
O8           C21   1.259       .  A
O8          Al18   1.875       .  S
Al9          O22   1.950       .  S
Al9          O19   1.957       .  S
Al9          O14   1.772       .  S
O10          C17   1.269       .  A
O10         Al18   1.947       .  S
O11          C20   1.268       .  A
O11         Al18   1.946       .  S
O12         Al18   1.862       .  S
O13          C20   1.257       .  A
O14         Al18   1.773       .  S
O15          C16   1.268       .  A
C16        C1806   1.496   1_565  S
C17        C1701   1.490       .  S
C20        C1733   1.471       .  S
C21          O22   1.269       .  A
C21        C1838   1.497       .  S
O23          C38   1.261       .  A
O23         Al31   1.882       .  S
C24          O34   1.254       .  A
C24          O25   1.268       .  A
C24        C1646   1.493   1_455  S
O25         Al27   1.940       .  S
O26          C28   1.253       .  A
O26         Al27   1.871       .  S
Al27         O35   1.876       .  S
Al27         O37   1.956       .  S
Al27         O36   1.772       .  S
C28          O41   1.268       .  A
C28        C1605   1.467       .  S
O29          C39   1.260       .  A
O29         Al31   1.874       .  S
O30          C43   1.260       .  A
O30         Al40   1.882       .  S
Al31         O44   1.941       .  S
Al31         O41   1.962       .  S
Al31         O36   1.768       .  S
O32          C39   1.269       .  A
O32         Al40   1.945       .  S
O33          C42   1.268       .  A
O33         Al40   1.942       .  S
O34         Al40   1.866       .  S
O35          C42   1.258       .  A
O36         Al40   1.773       .  S
O37          C38   1.270       .  A
C38        C1669   1.492   1_545  S
C39        C1509   1.488       .  S
C42        C1582   1.469       .  S
C43          O44   1.268       .  A
C43        C1550   1.495       .  S
O45          C60   1.258       .  A
O45         Al53   1.878       .  S
C46          O56   1.259       .  A
C46          O47   1.271       .  A
C46        C1390   1.494       .  S
O47         Al49   1.957       .  S
O48          C50   1.249       .  A
O48         Al49   1.853       .  S
Al49         O57   1.866       .  S
Al49         O59   1.967       .  S
Al49         O58   1.760       .  S
C50          O63   1.276       .  A
C50        C1445   1.487       .  S
O51          C61   1.260       .  A
O51         Al53   1.890       .  S
O52          C65   1.260       .  A
O52         Al62   1.874       .  S
Al53         O66   1.965       .  S
Al53         O63   1.991       .  S
Al53         O58   1.766       .  S
O54          C61   1.273       .  A
O54         Al62   1.957       .  S
O55          C64   1.270       .  A
O55         Al62   1.962       .  S
O56         Al62   1.863       .  S
O57          C64   1.254       .  A
O58         Al62   1.769       .  S
O59          C60   1.271       .  A
C60        C1829   1.494       .  S
C61        C1477   1.498       .  S
C64        C1413   1.467       .  S
C65          O66   1.275       .  A
C65        C1678   1.484       .  S
O67          C82   1.273       .  A
O67         Al75   1.955       .  S
C68          O78   1.271       .  A
C68          O69   1.257       .  A
C68        C1486   1.501   1_655  S
O69         Al71   1.878       .  S
O70          C72   1.267       .  A
O70         Al71   1.938       .  S
Al71         O79   1.953       .  S
Al71         O81   1.892       .  S
Al71         O80   1.773       .  S
C72          O85   1.260       .  A
C72        C1317   1.485       .  S
O73          C83   1.271       .  A
O73         Al75   1.968       .  S
O74          C87   1.269       .  A
O74         Al84   1.950       .  S
Al75         O88   1.877       .  S
Al75         O85   1.886       .  S
Al75         O80   1.771       .  S
O76          C83   1.250       .  A
O76         Al84   1.842       .  S
O77          C86   1.255       .  A
O77         Al84   1.863       .  S
O78         Al84   1.951       .  S
O79          C86   1.269       .  A
O80         Al84   1.770       .  S
O81          C82   1.263       .  A
C82        C1285   1.497       .  S
C83        C1614   1.475       .  S
C86        C1573   1.486       .  S
C87          O88   1.259       .  A
C87        C1349   1.492   1_565  S
O89         C104   1.272       .  A
O89         Al97   1.942       .  S
C90         O100   1.267       .  A
C90          O91   1.262       .  A
C90        C1253   1.502       .  S
O91         Al93   1.899       .  S
O92          C94   1.268       .  A
O92         Al93   1.951       .  S
Al93        O101   1.966       .  S
Al93        O103   1.893       .  S
Al93        O102   1.775       .  S
C94         O107   1.258       .  A
C94        C1637   1.481       .  S
O95         C105   1.270       .  A
O95         Al97   1.954       .  S
O96         C109   1.266       .  A
O96        Al106   1.944       .  S
Al97        O110   1.893       .  S
Al97        O107   1.879       .  S
Al97        O102   1.767       .  S
O98         C105   1.253       .  A
O98        Al106   1.849       .  S
O99         C108   1.257       .  A
O99        Al106   1.861       .  S
O100       Al106   1.941       .  S
O101        C108   1.273       .  A
O102       Al106   1.769       .  S
O103        C104   1.263       .  A
C104       C1358   1.497       .  S
C105       C1221   1.465       .  S
C108       C1198   1.491       .  S
C109        O110   1.261       .  A
C109       C1166   1.496       .  S
O111        C126   1.275       .  A
O111       Al119   1.959       .  S
C112        O122   1.265       .  A
C112        O113   1.261       .  A
C112       C1518   1.493       .  S
O113       Al115   1.887       .  S
O114        C116   1.270       .  A
O114       Al115   1.953       .  S
Al115       O123   1.972       .  S
Al115       O125   1.892       .  S
Al115       O124   1.772       .  S
C116        O129   1.259       .  A
C116       C1093   1.487       .  S
O117        C127   1.275       .  A
O117       Al119   1.984       .  S
O118        C131   1.264       .  A
O118       Al128   1.930       .  S
Al119       O132   1.880       .  S
Al119       O129   1.879       .  S
Al119       O124   1.765       .  S
O120        C127   1.252       .  A
O120       Al128   1.857       .  S
O121        C130   1.256       .  A
O121       Al128   1.859       .  S
O122       Al128   1.931       .  S
O123        C130   1.274       .  A
O124       Al128   1.768       .  S
O125        C126   1.262       .  A
C126       C1125   1.502       .  S
C127       C1061   1.480       .  S
C130       C1029   1.495       .  S
C131        O132   1.258       .  A
C131        C997   1.483       .  S
O133        C148   1.273       .  A
O133       Al141   1.955       .  S
C134        O144   1.273       .  A
C134        O135   1.255       .  A
C134        C869   1.494   1_455  S
O135       Al137   1.863       .  S
O136        C138   1.268       .  A
O136       Al137   1.955       .  S
Al137       O145   1.957       .  S
Al137       O147   1.870       .  S
Al137       O146   1.779       .  S
C138        O151   1.253       .  A
C138       C1381   1.482       .  S
O139        C149   1.270       .  A
O139       Al141   1.964       .  S
O140        C153   1.268       .  A
O140       Al150   1.946       .  S
Al141       O154   1.875       .  S
Al141       O151   1.873       .  S
Al141       O146   1.772       .  S
O142        C149   1.253       .  A
O142       Al150   1.848       .  S
O143        C152   1.256       .  A
O143       Al150   1.876       .  S
O144       Al150   1.952       .  S
O145        C152   1.268       .  A
O146       Al150   1.772       .  S
O147        C148   1.261       .  A
C148        C965   1.491       .  S
C149        C933   1.481       .  S
C152        C910   1.479       .  S
C153        O154   1.256       .  A
C153       C1134   1.492       .  S
O155        C170   1.260       .  A
O155       Al163   1.884       .  S
C156        O166   1.254       .  A
C156        O157   1.266       .  A
C156       C1102   1.495   1_655  S
O157       Al159   1.933       .  S
O158        C160   1.251       .  A
O158       Al159   1.869       .  S
Al159       O167   1.872       .  S
Al159       O169   1.955       .  S
Al159       O168   1.772       .  S
C160        O173   1.269       .  A
C160        C942   1.468       .  S
O161        C171   1.260       .  A
O161       Al163   1.878       .  S
O162        C175   1.259       .  A
O162       Al172   1.889       .  S
Al163       O176   1.958       .  S
Al163       O173   1.968       .  S
Al163       O168   1.774       .  S
O164        C171   1.273       .  A
O164       Al172   1.962       .  S
O165        C174   1.273       .  A
O165       Al172   1.962       .  S
O166       Al172   1.876       .  S
O167        C174   1.258       .  A
O168       Al172   1.769       .  S
O169        C170   1.273       .  A
C170        C805   1.496       .  S
C171       C1262   1.492       .  S
C174        C901   1.488       .  S
C175        O176   1.271       .  A
C175        C837   1.500       .  S
O177        C192   1.267   1_554  A
O177       Al185   1.916       .  S
C178        O188   1.259       .  A
C178        O179   1.265   1_554  A
C178       C1710   1.478       .  S
O179       Al181   1.916       .  S
O180        C182   1.260       .  A
O180       Al181   1.918   1_554  S
Al181       O189   1.931       .  S
Al181       O191   1.888       .  S
Al181       O190   1.789   1_556  S
C182        O195   1.254       .  A
C182        C782   1.470       .  S
O183        C193   1.262       .  A
O183       Al185   1.929       .  S
O184        C197   1.265       .  A
O184       Al194   1.906       .  S
Al185       O198   1.907       .  S
Al185       O195   1.883       .  S
Al185       O190   1.786       .  S
O186        C193   1.251       .  A
O186       Al194   1.870       .  S
O187        C196   1.253       .  A
O187       Al194   1.882   1_556  S
O188       Al194   1.885       .  S
O189        C196   1.263       .  A
O190       Al194   1.788       .  S
O191        C192   1.260       .  A
C192        C741   1.485       .  S
C193       C1454   1.463       .  S
C196       C1422   1.490       .  S
C197        O198   1.263       .  A
C197        C974   1.476       .  S
O199        C214   1.257       .  A
O199       Al207   1.890   1_554  S
C200        O210   1.261       .  A
C200        O201   1.273       .  A
C200        C718   1.503   1_554  S
O201       Al203   1.966       .  S
O202        C204   1.250       .  A
O202       Al203   1.850   1_556  S
Al203       O211   1.866       .  S
Al203       O213   1.960       .  S
Al203       O212   1.759       .  S
C204        O217   1.277       .  A
C204       C1230   1.479       .  S
O205        C215   1.261       .  A
O205       Al207   1.894       .  S
O206        C219   1.258       .  A
O206       Al216   1.865       .  S
Al207       O220   1.967   1_556  S
Al207       O217   1.989       .  S
Al207       O212   1.771   1_556  S
O208        C215   1.267   1_554  A
O208       Al216   1.939       .  S
O209        C218   1.269       .  A
O209       Al216   1.953       .  S
O210       Al216   1.877       .  S
O211        C218   1.255       .  A
O212       Al216   1.769       .  S
O213        C214   1.270       .  A
C214        C846   1.487   1_554  S
C215        C654   1.487       .  S
C218       C1189   1.470       .  S
C219        O220   1.277       .  A
C219        C686   1.490       .  S
O221        C236   1.272       .  A
O221       Al229   1.950       .  S
C222        O232   1.268       .  A
C222        O223   1.259       .  A
C222        C645   1.496       .  S
O223       Al225   1.880       .  S
O224        C226   1.271       .  A
O224       Al225   1.968       .  S
Al225       O233   1.969       .  S
Al225       O235   1.870       .  S
Al225       O234   1.773       .  S
C226        O239   1.256       .  A
C226        C622   1.494       .  S
O227        C237   1.273       .  A
O227       Al229   1.971       .  S
O228        C241   1.266       .  A
O228       Al238   1.940       .  S
Al229       O242   1.877       .  S
Al229       O239   1.865       .  S
Al229       O234   1.768       .  S
O230        C237   1.253       .  A
O230       Al238   1.846       .  S
O231        C240   1.258       .  A
O231       Al238   1.870       .  S
O232       Al238   1.943       .  S
O233        C240   1.274       .  A
O234       Al238   1.769       .  S
O235        C236   1.257       .  A
C236       C1006   1.480       .  S
C237        C581   1.477       .  S
C240        C549   1.501       .  S
C241        O242   1.257       .  A
C241        C750   1.489       .  S
O243        C258   1.258       .  A
O243       Al251   1.870   1_554  S
C244        O254   1.253       .  A
C244        O245   1.274       .  A
C244        C613   1.495   1_554  S
O245       Al247   1.959       .  S
O246        C248   1.249       .  A
O246       Al247   1.850   1_556  S
Al247       O255   1.865       .  S
Al247       O257   1.964       .  S
Al247       O256   1.763       .  S
C248        O261   1.275       .  A
C248       C1070   1.486       .  S
O249        C259   1.263       .  A
O249       Al251   1.890       .  S
O250        C263   1.262       .  A
O250       Al260   1.877       .  S
Al251       O264   1.968   1_556  S
Al251       O261   1.993       .  S
Al251       O256   1.768   1_556  S
O252        C259   1.269   1_554  A
O252       Al260   1.940       .  S
O253        C262   1.269       .  A
O253       Al260   1.958       .  S
O254       Al260   1.856       .  S
O255        C262   1.253       .  A
O256       Al260   1.770       .  S
O257        C258   1.272       .  A
C258       C1541   1.495       .  S
C259        C517   1.488       .  S
C262       C1038   1.474       .  S
C263        O264   1.275       .  A
C263       C1797   1.498       .  S
O265        C280   1.276       .  A
O265       Al273   1.969       .  S
C266        O276   1.267       .  A
C266        O267   1.259       .  A
C266        C526   1.492       .  S
O267       Al269   1.875       .  S
O268        C270   1.273       .  A
O268       Al269   1.964       .  S
Al269       O277   1.974       .  S
Al269       O279   1.879       .  S
Al269       O278   1.765       .  S
C270        O283   1.260       .  A
C270        C709   1.484       .  S
O271        C281   1.275       .  A
O271       Al273   1.993       .  S
O272        C285   1.270       .  A
O272       Al282   1.958       .  S
Al273       O286   1.873       .  S
Al273       O283   1.882       .  S
Al273       O278   1.766       .  S
O274        C281   1.249       .  A
O274       Al282   1.850       .  S
O275        C284   1.255       .  A
O275       Al282   1.853       .  S
O276       Al282   1.940       .  S
O277        C284   1.274       .  A
O278       Al282   1.759       .  S
O279        C280   1.260       .  A
C280       C1157   1.488       .  S
C281       C1774   1.486       .  S
C284       C1742   1.482       .  S
C285        O286   1.259       .  A
C285        C494   1.487   1_545  S
O287        C302   1.272   1_554  A
O287       Al295   1.945       .  S
C288        O298   1.269       .  A
C288        O289   1.253       .  A
C288        C389   1.486       .  S
O289       Al291   1.860   1_554  S
O290        C292   1.267       .  A
O290       Al291   1.945   1_554  S
Al291       O299   1.939       .  S
Al291       O301   1.871       .  S
Al291       O300   1.775   1_556  S
C292        O305   1.256       .  A
C292       C1870   1.475       .  S
O293        C303   1.268       .  A
O293       Al295   1.956       .  S
O294        C307   1.269       .  A
O294       Al304   1.947       .  S
Al295       O308   1.886       .  S
Al295       O305   1.870       .  S
Al295       O300   1.773       .  S
O296        C303   1.252       .  A
O296       Al304   1.854       .  S
O297        C306   1.260       .  A
O297       Al304   1.880   1_556  S
O298       Al304   1.942       .  S
O299        C306   1.268       .  A
O300       Al304   1.769       .  S
O301        C302   1.257       .  A
C302        C485   1.489       .  S
C303        C453   1.466       .  S
C306        C430   1.491       .  S
C307        O308   1.261       .  A
C307       C1294   1.501       .  S
O309        C324   1.261       .  A
O309       Al317   1.876       .  S
C310        O320   1.253       .  A
C310        O311   1.269       .  A
C310       C1326   1.492       .  S
O311       Al313   1.943       .  S
O312        C314   1.250       .  A
O312       Al313   1.866       .  S
Al313       O321   1.869       .  S
Al313       O323   1.962       .  S
Al313       O322   1.767       .  S
C314        O327   1.268       .  A
C314        C462   1.474       .  S
O315        C325   1.261       .  A
O315       Al317   1.879       .  S
O316        C329   1.255       .  A
O316       Al326   1.875       .  S
Al317       O330   1.956       .  S
Al317       O327   1.972       .  S
Al317       O322   1.778       .  S
O318        C325   1.271       .  A
O318       Al326   1.944       .  S
O319        C328   1.267       .  A
O319       Al326   1.941       .  S
O320       Al326   1.864       .  S
O321        C328   1.255       .  A
O322       Al326   1.771       .  S
O323        C324   1.275       .  A
C324        C357   1.489       .  S
C325        C878   1.484       .  S
C328        C421   1.470       .  S
C329        O330   1.272       .  A
C329        C814   1.492       .  S
O331        C346   1.257       .  A
O331       Al339   1.880       .  S
C332        O342   1.257       .  A
C332        O333   1.271       .  A
C332        C773   1.497       .  S
O333       Al335   1.956       .  S
O334        C336   1.252       .  A
O334       Al335   1.869       .  S
Al335       O343   1.884       .  S
Al335       O345   1.967       .  S
Al335       O344   1.765       .  S
C336        O349   1.272       .  A
C336        C590   1.472       .  S
O337        C347   1.259       .  A
O337       Al339   1.876       .  S
O338        C351   1.257       .  A
O338       Al348   1.876       .  S
Al339       O352   1.963       .  S
Al339       O349   1.977       .  S
Al339       O344   1.770       .  S
O340        C347   1.268       .  A
O340       Al348   1.946       .  S
O341        C350   1.268       .  A
O341       Al348   1.946       .  S
O342       Al348   1.866       .  S
O343        C350   1.258       .  A
O344       Al348   1.768       .  S
O345        C346   1.275       .  A
C346        C677   1.499       .  S
C347        C398   1.472       .  S
C350        C558   1.473       .  S
C351        O352   1.275       .  A
C351        C366   1.498       .  S
C353        C354   1.399       .  A
C353        C358   1.405       .  A
C353        H363   1.085       .  S
C354        C359   1.484       .  S
C354        C355   1.411       .  A
C355        C356   1.404       .  A
C355        C360   1.507       .  S
C356        C357   1.406       .  A
C356        H361   1.082       .  S
C357        C358   1.421       .  A
C358        C362   1.507       .  S
C359        C364   1.410       .  A
C359        C368   1.396       .  A
C360        H376   1.110       .  S
C360        H377   1.109       .  S
C360        H378   1.111       .  S
C362        H373   1.111       .  S
C362        H374   1.111       .  S
C362        H375   1.108       .  S
C364        C365   1.406       .  A
C364        C369   1.507       .  S
C365        C366   1.408       .  A
C365        H370   1.083       .  S
C366        C367   1.429       .  A
C367        C368   1.406       .  A
C367        C371   1.510       .  S
C368        H372   1.084       .  S
C369        H379   1.111       .  S
C369        H380   1.110       .  S
C369        H381   1.109       .  S
C371        H382   1.111       .  S
C371        H383   1.110       .  S
C371        H384   1.111       .  S
C385        C386   1.393       .  A
C385        C390   1.398       .  A
C385        H395   1.085       .  S
C386        C391   1.475       .  S
C386        C387   1.410       .  A
C387        C388   1.405       .  A
C387        C392   1.506       .  S
C388        C389   1.406       .  A
C388        H393   1.084       .  S
C389        C390   1.426       .  A
C390        C394   1.508       .  S
C391        C396   1.412       .  A
C391        C400   1.398       .  A
C392        H408   1.110       .  S
C392        H409   1.109       .  S
C392        H410   1.111       .  S
C394        H405   1.111       .  S
C394        H406   1.106       .  S
C394        H407   1.110       .  S
C396        C397   1.404       .  A
C396        C401   1.507       .  S
C397        C398   1.404       .  A
C397        H402   1.084       .  S
C398        C399   1.413       .  A
C399        C400   1.400       .  A
C399        C403   1.506       .  S
C400        H404   1.085       .  S
C401        H411   1.111       .  S
C401        H412   1.110       .  S
C401        H413   1.109       .  S
C403        H414   1.111       .  S
C403        H415   1.111       .  S
C403        H416   1.107       .  S
C417        C418   1.400       .  A
C417        C422   1.401       .  A
C417        H427   1.084       .  S
C418        C423   1.480       .  S
C418        C419   1.412       .  A
C419        C420   1.405       .  A
C419        C424   1.506       .  S
C420        C421   1.402       .  A
C420        H425   1.083       .  S
C421        C422   1.415       .  A
C422        C426   1.508       .  S
C423        C428   1.407       .  A
C423        C432   1.401       .  A
C424        H440   1.110       .  S
C424        H441   1.110       .  S
C424        H442   1.111       .  S
C426        H437   1.110       .  S
C426        H438   1.110       .  S
C426        H439   1.107       .  S
C428        C429   1.402       .  A
C428        C433   1.507       .  S
C429        C430   1.409       .  A
C429        H434   1.084       .  S
C430        C431   1.421       .  A
C431        C432   1.406       .  A
C431        C435   1.508       .  S
C432        H436   1.084       .  S
C433        H443   1.111       .  S
C433        H444   1.110       .  S
C433        H445   1.110       .  S
C435        H446   1.111       .  S
C435        H447   1.110       .  S
C435        H448   1.111       .  S
C449        C450   1.400       .  A
C449        C454   1.400       .  A
C449        H459   1.084       .  S
C450        C455   1.480       .  S
C450        C451   1.414       .  A
C451        C452   1.403       .  A
C451        C456   1.507       .  S
C452        C453   1.400       .  A
C452        H457   1.086       .  S
C453        C454   1.415       .  A
C454        C458   1.507       .  S
C455        C460   1.406       .  A
C455        C464   1.406       .  A
C456        H472   1.110       .  S
C456        H473   1.110       .  S
C456        H474   1.111       .  S
C458        H469   1.110       .  S
C458        H470   1.110       .  S
C458        H471   1.109       .  S
C460        C461   1.397       .  A
C460        C465   1.507       .  S
C461        C462   1.405       .  A
C461        H466   1.085       .  S
C462        C463   1.410       .  A
C463        C464   1.406       .  A
C463        C467   1.501       .  S
C464        H468   1.084       .  S
C465        H475   1.111       .  S
C465        H476   1.110       .  S
C465        H477   1.110       .  S
C467        H478   1.110       .  S
C467        H479   1.105       .  S
C467        H480   1.110       .  S
C481        C482   1.397       .  A
C481        C486   1.403       .  A
C481        H491   1.083       .  S
C482        C487   1.479       .  S
C482        C483   1.410       .  A
C483        C484   1.401       .  A
C483        C488   1.508       .  S
C484        C485   1.407       .  A
C484        H489   1.083       .  S
C485        C486   1.425       .  A
C486        C490   1.510       .  S
C487        C492   1.407       .  A
C487        C496   1.401       .  A
C488        H504   1.110       .  S
C488        H505   1.110       .  S
C488        H506   1.111       .  S
C490        H501   1.111       .  S
C490        H502   1.110       .  S
C490        H503   1.110       .  S
C492        C493   1.400       .  A
C492        C497   1.507       .  S
C493        C494   1.409       .  A
C493        H498   1.083       .  S
C494        C495   1.420       .  A
C495        C496   1.404       .  A
C495        C499   1.506       .  S
C496        H500   1.085       .  S
C497        H507   1.111       .  S
C497        H508   1.110       .  S
C497        H509   1.111       .  S
C499        H510   1.111       .  S
C499        H511   1.110       .  S
C499        H512   1.106       .  S
C513        C514   1.400       .  A
C513        C518   1.404       .  A
C513        H523   1.083       .  S
C514        C519   1.481       .  S
C514        C515   1.408       .  A
C515        C516   1.404       .  A
C515        C520   1.506       .  S
C516        C517   1.409       .  A
C516        H521   1.083       .  S
C517        C518   1.421       .  A
C518        C522   1.509   1_556  S
C519        C524   1.406       .  A
C519        C528   1.402       .  A
C520        H536   1.110       .  S
C520        H537   1.111       .  S
C520        H538   1.111       .  S
C522        H533   1.111       .  S
C522        H534   1.110       .  S
C522        H535   1.110       .  S
C524        C525   1.399       .  A
C524        C529   1.507       .  S
C525        C526   1.411       .  A
C525        H530   1.084       .  S
C526        C527   1.421       .  A
C527        C528   1.408       .  A
C527        C531   1.507       .  S
C528        H532   1.085       .  S
C529        H539   1.111       .  S
C529        H540   1.110       .  S
C529        H541   1.110       .  S
C531        H542   1.111       .  S
C531        H543   1.110       .  S
C531        H544   1.110       .  S
C545        C546   1.404       .  A
C545        C550   1.409       .  A
C545        H555   1.084       .  S
C546        C551   1.491       .  S
C546        C547   1.409       .  A
C547        C548   1.404       .  A
C547        C552   1.508       .  S
C548        C549   1.414       .  A
C548        H553   1.083       .  S
C549        C550   1.419       .  A
C550        C554   1.506       .  S
C551        C556   1.415       .  A
C551        C560   1.405       .  A
C552        H568   1.109       .  S
C552        H569   1.110       .  S
C552        H570   1.111       .  S
C554        H565   1.111       .  S
C554        H566   1.110       .  S
C554        H567   1.110       .  S
C556        C557   1.405       .  A
C556        C561   1.507       .  S
C557        C558   1.400       .  A
C557        H562   1.085       .  S
C558        C559   1.411       .  A
C559        C560   1.406       .  A
C559        C563   1.505       .  S
C560        H564   1.084       .  S
C561        H571   1.111       .  S
C561        H572   1.109       .  S
C561        H573   1.110       .  S
C563        H574   1.109       .  S
C563        H575   1.110       .  S
C563        H576   1.111       .  S
C577        C578   1.400   1_556  A
C577        C582   1.397       .  A
C577        H587   1.084       .  S
C578        C583   1.490       .  S
C578        C579   1.418   1_554  A
C579        C580   1.410       .  A
C579        C584   1.506   1_556  S
C580        C581   1.403       .  A
C580        H585   1.085       .  S
C581        C582   1.417       .  A
C582        C586   1.509       .  S
C583        C588   1.413       .  A
C583        C592   1.407       .  A
C584        H600   1.108       .  S
C584        H601   1.110       .  S
C584        H602   1.111       .  S
C586        H597   1.111       .  S
C586        H598   1.110       .  S
C586        H599   1.110       .  S
C588        C589   1.402       .  A
C588        C593   1.509       .  S
C589        C590   1.402       .  A
C589        H594   1.079       .  S
C590        C591   1.409       .  A
C591        C592   1.408       .  A
C591        C595   1.503       .  S
C592        H596   1.083   1_554  S
C593        H603   1.110       .  S
C593        H604   1.108       .  S
C593        H605   1.111       .  S
C595        H606   1.111       .  S
C595        H607   1.110       .  S
C595        H608   1.110       .  S
C609        C610   1.398       .  A
C609        C614   1.405       .  A
C609        H619   1.084       .  S
C610        C615   1.489       .  S
C610        C611   1.412       .  A
C611        C612   1.408       .  A
C611        C616   1.506       .  S
C612        C613   1.407       .  A
C612        H617   1.083       .  S
C613        C614   1.428       .  A
C614        C618   1.511   1_556  S
C615        C620   1.408       .  A
C615        C624   1.406       .  A
C616        H632   1.110       .  S
C616        H633   1.110       .  S
C616        H634   1.111       .  S
C618        H629   1.111       .  S
C618        H630   1.110   1_554  S
C618        H631   1.110       .  S
C620        C621   1.400       .  A
C620        C625   1.508       .  S
C621        C622   1.409       .  A
C621        H626   1.084       .  S
C622        C623   1.419       .  A
C623        C624   1.412       .  A
C623        C627   1.506       .  S
C624        H628   1.085       .  S
C625        H635   1.111       .  S
C625        H636   1.109       .  S
C625        H637   1.111       .  S
C627        H638   1.110       .  S
C627        H639   1.110       .  S
C627        H640   1.111       .  S
C641        C642   1.402       .  A
C641        C646   1.410       .  A
C641        H651   1.083       .  S
C642        C647   1.484       .  S
C642        C643   1.407       .  A
C643        C644   1.402       .  A
C643        C648   1.508       .  S
C644        C645   1.411       .  A
C644        H649   1.083       .  S
C645        C646   1.421       .  A
C646        C650   1.507       .  S
C647        C652   1.410       .  A
C647        C656   1.400       .  A
C648        H664   1.110       .  S
C648        H665   1.110       .  S
C648        H666   1.111       .  S
C650        H661   1.111       .  S
C650        H662   1.110       .  S
C650        H663   1.110       .  S
C652        C653   1.406       .  A
C652        C657   1.506       .  S
C653        C654   1.407       .  A
C653        H658   1.083       .  S
C654        C655   1.420       .  A
C655        C656   1.405       .  A
C655        C659   1.508   1_556  S
C656        H660   1.085       .  S
C657        H667   1.111       .  S
C657        H668   1.110       .  S
C657        H669   1.110       .  S
C659        H670   1.111       .  S
C659        H671   1.109       .  S
C659        H672   1.109       .  S
C673        C674   1.397       .  A
C673        C678   1.406       .  A
C673        H683   1.084       .  S
C674        C679   1.484       .  S
C674        C675   1.410       .  A
C675        C676   1.406       .  A
C675        C680   1.507       .  S
C676        C677   1.409       .  A
C676        H681   1.083       .  S
C677        C678   1.428       .  A
C678        C682   1.510       .  S
C679        C684   1.412       .  A
C679        C688   1.397       .  A
C680        H696   1.110       .  S
C680        H697   1.109       .  S
C680        H698   1.110       .  S
C682        H693   1.109       .  S
C682        H694   1.111       .  S
C682        H695   1.110       .  S
C684        C685   1.405       .  A
C684        C689   1.506       .  S
C685        C686   1.406       .  A
C685        H690   1.084       .  S
C686        C687   1.426       .  A
C687        C688   1.404       .  A
C687        C691   1.511       .  S
C688        H692   1.084       .  S
C689        H699   1.111       .  S
C689        H700   1.110       .  S
C689        H701   1.109       .  S
C691        H702   1.111       .  S
C691        H703   1.111       .  S
C691        H704   1.109       .  S
C705        C706   1.403       .  A
C705        C710   1.407       .  A
C705        H715   1.085       .  S
C706        C711   1.492       .  S
C706        C707   1.414       .  A
C707        C708   1.407       .  A
C707        C712   1.507       .  S
C708        C709   1.405       .  A
C708        H713   1.082       .  S
C709        C710   1.416       .  A
C710        C714   1.508       .  S
C711        C716   1.408       .  A
C711        C720   1.405       .  A
C712        H728   1.110       .  S
C712        H729   1.110       .  S
C712        H730   1.111       .  S
C714        H725   1.111       .  S
C714        H726   1.109       .  S
C714        H727   1.111       .  S
C716        C717   1.402       .  A
C716        C721   1.508       .  S
C717        C718   1.412       .  A
C717        H722   1.083       .  S
C718        C719   1.422       .  A
C719        C720   1.413       .  A
C719        C723   1.506   1_556  S
C720        H724   1.085       .  S
C721        H731   1.111       .  S
C721        H732   1.110       .  S
C721        H733   1.110       .  S
C723        H734   1.111       .  S
C723        H735   1.109       .  S
C723        H736   1.109   1_554  S
C737        C738   1.396       .  A
C737        C742   1.402       .  A
C737        H747   1.084       .  S
C738        C743   1.479       .  S
C738        C739   1.411       .  A
C739        C740   1.405       .  A
C739        C744   1.507       .  S
C740        C741   1.406       .  A
C740        H745   1.083       .  S
C741        C742   1.422       .  A
C742        C746   1.510       .  S
C743        C748   1.406       .  A
C743        C752   1.401       .  A
C744        H760   1.110       .  S
C744        H761   1.110       .  S
C744        H762   1.111       .  S
C746        H757   1.111       .  S
C746        H758   1.109       .  S
C746        H759   1.110       .  S
C748        C749   1.402       .  A
C748        C753   1.506       .  S
C749        C750   1.410       .  A
C749        H754   1.085       .  S
C750        C751   1.420       .  A
C751        C752   1.405       .  A
C751        C755   1.508       .  S
C752        H756   1.084       .  S
C753        H763   1.111       .  S
C753        H764   1.110       .  S
C753        H765   1.110       .  S
C755        H766   1.111       .  S
C755        H767   1.111       .  S
C755        H768   1.110       .  S
C769        C770   1.403       .  A
C769        C774   1.409       .  A
C769        H779   1.084       .  S
C770        C775   1.485       .  S
C770        C771   1.406       .  A
C771        C772   1.401       .  A
C771        C776   1.507       .  S
C772        C773   1.414       .  A
C772        H777   1.083       .  S
C773        C774   1.419       .  A
C774        C778   1.506       .  S
C775        C780   1.412       .  A
C775        C784   1.403       .  A
C776        H792   1.110       .  S
C776        H793   1.110       .  S
C776        H794   1.111       .  S
C778        H789   1.110       .  S
C778        H790   1.111       .  S
C778        H791   1.108       .  S
C780        C781   1.405       .  A
C780        C785   1.507       .  S
C781        C782   1.402       .  A
C781        H786   1.085       .  S
C782        C783   1.413       .  A
C783        C784   1.405       .  A
C783        C787   1.508       .  S
C784        H788   1.085       .  S
C785        H795   1.111       .  S
C785        H796   1.110       .  S
C785        H797   1.110       .  S
C787        H798   1.110       .  S
C787        H799   1.109       .  S
C787        H800   1.110       .  S
C801        C802   1.397       .  A
C801        C806   1.405       .  A
C801        H811   1.085       .  S
C802        C807   1.482       .  S
C802        C803   1.409       .  A
C803        C804   1.405       .  A
C803        C808   1.506       .  S
C804        C805   1.410       .  A
C804        H809   1.084       .  S
C805        C806   1.426       .  A
C806        C810   1.509       .  S
C807        C812   1.411       .  A
C807        C816   1.397       .  A
C808        H824   1.110       .  S
C808        H825   1.110       .  S
C808        H826   1.110       .  S
C810        H821   1.109       .  S
C810        H822   1.111       .  S
C810        H823   1.110       .  S
C812        C813   1.404       .  A
C812        C817   1.507       .  S
C813        C814   1.407       .  A
C813        H818   1.084       .  S
C814        C815   1.425       .  A
C815        C816   1.405       .  A
C815        C819   1.509       .  S
C816        H820   1.084       .  S
C817        H827   1.111       .  S
C817        H828   1.110       .  S
C817        H829   1.110       .  S
C819        H830   1.110       .  S
C819        H831   1.109       .  S
C819        H832   1.111       .  S
C833        C834   1.398       .  A
C833        C838   1.407       .  A
C833        H843   1.085       .  S
C834        C839   1.492       .  S
C834        C835   1.412       .  A
C835        C836   1.410       .  A
C835        C840   1.505       .  S
C836        C837   1.408       .  A
C836        H841   1.083       .  S
C837        C838   1.426       .  A
C838        C842   1.508       .  S
C839        C844   1.412       .  A
C839        C848   1.404       .  A
C840        H856   1.110       .  S
C840        H857   1.110       .  S
C840        H858   1.111       .  S
C842        H853   1.110       .  S
C842        H854   1.111       .  S
C842        H855   1.108       .  S
C844        C845   1.404       .  A
C844        C849   1.508       .  S
C845        C846   1.405       .  A
C845        H850   1.082       .  S
C846        C847   1.418   1_556  A
C847        C848   1.411   1_554  A
C847        C851   1.506       .  S
C848        H852   1.085   1_556  S
C849        H859   1.111       .  S
C849        H860   1.110       .  S
C849        H861   1.110       .  S
C851        H862   1.111       .  S
C851        H863   1.109       .  S
C851        H864   1.110       .  S
C865        C866   1.394       .  A
C865        C870   1.401       .  A
C865        H875   1.085       .  S
C866        C871   1.478       .  S
C866        C867   1.409       .  A
C867        C868   1.405       .  A
C867        C872   1.506       .  S
C868        C869   1.408       .  A
C868        H873   1.083       .  S
C869        C870   1.429       .  A
C870        C874   1.510   1_655  S
C871        C876   1.410       .  A
C871        C880   1.397       .  A
C872        H888   1.110       .  S
C872        H889   1.110       .  S
C872        H890   1.111       .  S
C874        H885   1.109       .  S
C874        H886   1.111   1_455  S
C874        H887   1.110       .  S
C876        C877   1.403       .  A
C876        C881   1.505       .  S
C877        C878   1.405       .  A
C877        H882   1.084       .  S
C878        C879   1.420       .  A
C879        C880   1.402       .  A
C879        C883   1.506       .  S
C880        H884   1.084       .  S
C881        H891   1.111       .  S
C881        H892   1.110       .  S
C881        H893   1.110       .  S
C883        H894   1.111       .  S
C883        H895   1.108       .  S
C883        H896   1.111       .  S
C897        C898   1.405       .  A
C897        C902   1.409       .  A
C897        H907   1.085   1_556  S
C898        C903   1.490   1_656  S
C898        C899   1.410   1_655  A
C899        C900   1.405   1_455  A
C899        C904   1.507       .  S
C900        C901   1.408       .  A
C900        H905   1.084   1_655  S
C901        C902   1.413       .  A
C902        C906   1.504       .  S
C903        C908   1.413   1_455  A
C903        C912   1.402       .  A
C904        H920   1.110       .  S
C904        H921   1.110       .  S
C904        H922   1.111       .  S
C906        H917   1.111   1_556  S
C906        H918   1.109       .  S
C906        H919   1.111       .  S
C908        C909   1.408   1_655  A
C908        C913   1.506       .  S
C909        C910   1.404       .  A
C909        H914   1.083   1_455  S
C910        C911   1.416       .  A
C911        C912   1.405       .  A
C911        C915   1.509       .  S
C912        H916   1.083       .  S
C913        H923   1.110       .  S
C913        H924   1.110       .  S
C913        H925   1.110   1_554  S
C915        H926   1.110       .  S
C915        H927   1.109       .  S
C915        H928   1.110       .  S
C929        C930   1.399       .  A
C929        C934   1.397       .  A
C929        H939   1.083       .  S
C930        C935   1.493       .  S
C930        C931   1.422   1_655  A
C931        C932   1.411       .  A
C931        C936   1.508       .  S
C932        C933   1.402       .  A
C932        H937   1.084       .  S
C933        C934   1.416   1_455  A
C934        C938   1.505       .  S
C935        C940   1.417       .  A
C935        C944   1.407       .  A
C936        H952   1.107       .  S
C936        H953   1.110       .  S
C936        H954   1.111       .  S
C938        H949   1.109   1_655  S
C938        H950   1.109       .  S
C938        H951   1.108       .  S
C940        C941   1.404       .  A
C940        C945   1.508       .  S
C941        C942   1.401       .  A
C941        H946   1.082       .  S
C942        C943   1.410       .  A
C943        C944   1.404       .  A
C943        C947   1.506       .  S
C944        H948   1.084       .  S
C945        H955   1.108       .  S
C945        H956   1.107       .  S
C945        H957   1.110       .  S
C947        H958   1.110       .  S
C947        H959   1.110       .  S
C947        H960   1.111       .  S
C961        C962   1.402       .  A
C961        C966   1.407       .  A
C961        H971   1.084       .  S
C962        C967   1.482       .  S
C962        C963   1.406       .  A
C963        C964   1.402       .  A
C963        C968   1.506       .  S
C964        C965   1.411       .  A
C964        H969   1.084       .  S
C965        C966   1.419       .  A
C966        C970   1.507       .  S
C967        C972   1.412       .  A
C967        C976   1.400       .  A
C968        H984   1.110       .  S
C968        H985   1.110       .  S
C968        H986   1.111       .  S
C970        H981   1.111       .  S
C970        H982   1.111       .  S
C970        H983   1.110       .  S
C972        C973   1.404       .  A
C972        C977   1.507       .  S
C973        C974   1.403       .  A
C973        H978   1.085       .  S
C974        C975   1.416       .  A
C975        C976   1.404       .  A
C975        C979   1.507       .  S
C976        H980   1.085       .  S
C977        H987   1.111       .  S
C977        H988   1.110       .  S
C977        H989   1.110       .  S
C979        H990   1.110       .  S
C979        H991   1.109       .  S
C979        H992   1.111   1_554  S
C993        C994   1.401       .  A
C993        C998   1.405       .  A
C993       H1003   1.085       .  S
C994        C999   1.475       .  S
C994        C995   1.405       .  A
C995        C996   1.396       .  A
C995       C1000   1.507       .  S
C996        C997   1.408       .  A
C996       H1001   1.084       .  S
C997        C998   1.419       .  A
C998       C1002   1.508       .  S
C999       C1004   1.411       .  A
C999       C1008   1.398       .  A
C1000      H1016   1.110       .  S
C1000      H1017   1.110       .  S
C1000      H1018   1.111       .  S
C1002      H1013   1.109       .  S
C1002      H1014   1.111       .  S
C1002      H1015   1.111       .  S
C1004      C1005   1.400       .  A
C1004      C1009   1.508       .  S
C1005      C1006   1.404       .  A
C1005      H1010   1.084       .  S
C1006      C1007   1.421       .  A
C1007      C1008   1.404       .  A
C1007      C1011   1.509       .  S
C1008      H1012   1.084       .  S
C1009      H1019   1.111       .  S
C1009      H1020   1.110       .  S
C1009      H1021   1.110       .  S
C1011      H1022   1.109       .  S
C1011      H1023   1.110       .  S
C1011      H1024   1.111       .  S
C1025      C1026   1.407       .  A
C1025      C1030   1.411       .  A
C1025      H1035   1.083       .  S
C1026      C1031   1.488       .  S
C1026      C1027   1.408       .  A
C1027      C1028   1.399       .  A
C1027      C1032   1.509       .  S
C1028      C1029   1.412       .  A
C1028      H1033   1.084       .  S
C1029      C1030   1.416       .  A
C1030      C1034   1.505       .  S
C1031      C1036   1.413       .  A
C1031      C1040   1.405       .  A
C1032      H1048   1.109       .  S
C1032      H1049   1.110       .  S
C1032      H1050   1.111       .  S
C1034      H1045   1.110       .  S
C1034      H1046   1.111       .  S
C1034      H1047   1.109       .  S
C1036      C1037   1.404       .  A
C1036      C1041   1.507       .  S
C1037      C1038   1.404       .  A
C1037      H1042   1.084       .  S
C1038      C1039   1.411       .  A
C1039      C1040   1.405       .  A
C1039      C1043   1.506       .  S
C1040      H1044   1.084       .  S
C1041      H1051   1.111       .  S
C1041      H1052   1.109       .  S
C1041      H1053   1.110       .  S
C1043      H1054   1.111       .  S
C1043      H1055   1.110       .  S
C1043      H1056   1.110       .  S
C1057      C1058   1.401       .  A
C1057      C1062   1.404       .  A
C1057      H1067   1.084       .  S
C1058      C1063   1.490       .  S
C1058      C1059   1.415       .  A
C1059      C1060   1.410       .  A
C1059      C1064   1.506       .  S
C1060      C1061   1.404       .  A
C1060      H1065   1.085       .  S
C1061      C1062   1.417       .  A
C1062      C1066   1.509       .  S
C1063      C1068   1.407       .  A
C1063      C1072   1.409       .  A
C1064      H1080   1.110       .  S
C1064      H1081   1.110       .  S
C1064      H1082   1.111       .  S
C1066      H1077   1.110       .  S
C1066      H1078   1.107       .  S
C1066      H1079   1.111       .  S
C1068      C1069   1.400       .  A
C1068      C1073   1.508       .  S
C1069      C1070   1.410       .  A
C1069      H1074   1.085       .  S
C1070      C1071   1.413       .  A
C1071      C1072   1.414       .  A
C1071      C1075   1.505       .  S
C1072      H1076   1.084       .  S
C1073      H1083   1.111       .  S
C1073      H1084   1.110       .  S
C1073      H1085   1.110       .  S
C1075      H1086   1.110       .  S
C1075      H1087   1.107       .  S
C1075      H1088   1.110       .  S
C1089      C1090   1.402       .  A
C1089      C1094   1.408       .  A
C1089      H1099   1.084       .  S
C1090      C1095   1.483       .  S
C1090      C1091   1.409       .  A
C1091      C1092   1.402       .  A
C1091      C1096   1.507       .  S
C1092      C1093   1.407       .  A
C1092      H1097   1.083       .  S
C1093      C1094   1.419       .  A
C1094      C1098   1.507       .  S
C1095      C1100   1.409       .  A
C1095      C1104   1.397       .  A
C1096      H1112   1.110       .  S
C1096      H1113   1.110       .  S
C1096      H1114   1.110       .  S
C1098      H1109   1.109       .  S
C1098      H1110   1.111       .  S
C1098      H1111   1.110       .  S
C1100      C1101   1.406       .  A
C1100      C1105   1.506       .  S
C1101      C1102   1.410       .  A
C1101      H1106   1.082       .  S
C1102      C1103   1.427       .  A
C1103      C1104   1.403       .  A
C1103      C1107   1.510   1_455  S
C1104      H1108   1.084       .  S
C1105      H1115   1.111       .  S
C1105      H1116   1.110       .  S
C1105      H1117   1.110       .  S
C1107      H1118   1.111       .  S
C1107      H1119   1.110       .  S
C1107      H1120   1.111       .  S
C1121      C1122   1.399       .  A
C1121      C1126   1.409       .  A
C1121      H1131   1.084       .  S
C1122      C1127   1.491       .  S
C1122      C1123   1.412       .  A
C1123      C1124   1.406       .  A
C1123      C1128   1.508       .  S
C1124      C1125   1.409       .  A
C1124      H1129   1.084       .  S
C1125      C1126   1.426       .  A
C1126      C1130   1.507       .  S
C1127      C1132   1.410       .  A
C1127      C1136   1.403       .  A
C1128      H1144   1.110       .  S
C1128      H1145   1.110       .  S
C1128      H1146   1.111       .  S
C1130      H1141   1.110       .  S
C1130      H1142   1.111       .  S
C1130      H1143   1.109       .  S
C1132      C1133   1.406       .  A
C1132      C1137   1.506       .  S
C1133      C1134   1.410       .  A
C1133      H1138   1.083       .  S
C1134      C1135   1.418       .  A
C1135      C1136   1.407       .  A
C1135      C1139   1.507       .  S
C1136      H1140   1.084       .  S
C1137      H1147   1.111       .  S
C1137      H1148   1.110       .  S
C1137      H1149   1.110       .  S
C1139      H1150   1.111       .  S
C1139      H1151   1.110       .  S
C1139      H1152   1.110       .  S
C1153      C1154   1.400       .  A
C1153      C1158   1.407       .  A
C1153      H1163   1.084       .  S
C1154      C1159   1.488       .  S
C1154      C1155   1.412       .  A
C1155      C1156   1.407       .  A
C1155      C1160   1.507       .  S
C1156      C1157   1.406       .  A
C1156      H1161   1.084       .  S
C1157      C1158   1.420       .  A
C1158      C1162   1.509       .  S
C1159      C1164   1.407       .  A
C1159      C1168   1.404       .  A
C1160      H1176   1.110       .  S
C1160      H1177   1.110       .  S
C1160      H1178   1.111       .  S
C1162      H1173   1.111       .  S
C1162      H1174   1.109       .  S
C1162      H1175   1.110       .  S
C1164      C1165   1.402       .  A
C1164      C1169   1.507       .  S
C1165      C1166   1.409       .  A
C1165      H1170   1.083       .  S
C1166      C1167   1.421       .  A
C1167      C1168   1.411       .  A
C1167      C1171   1.507       .  S
C1168      H1172   1.085       .  S
C1169      H1179   1.111       .  S
C1169      H1180   1.110       .  S
C1169      H1181   1.110       .  S
C1171      H1182   1.111       .  S
C1171      H1183   1.111       .  S
C1171      H1184   1.109       .  S
C1185      C1186   1.403       .  A
C1185      C1190   1.404       .  A
C1185      H1195   1.084       .  S
C1186      C1191   1.480       .  S
C1186      C1187   1.410       .  A
C1187      C1188   1.400       .  A
C1187      C1192   1.507       .  S
C1188      C1189   1.403       .  A
C1188      H1193   1.085       .  S
C1189      C1190   1.412       .  A
C1190      C1194   1.506       .  S
C1191      C1196   1.405       .  A
C1191      C1200   1.404       .  A
C1192      H1208   1.109       .  S
C1192      H1209   1.110       .  S
C1192      H1210   1.111       .  S
C1194      H1205   1.111       .  S
C1194      H1206   1.109       .  S
C1194      H1207   1.110       .  S
C1196      C1197   1.398       .  A
C1196      C1201   1.508       .  S
C1197      C1198   1.412       .  A
C1197      H1202   1.084       .  S
C1198      C1199   1.417       .  A
C1199      C1200   1.408       .  A
C1199      C1203   1.505       .  S
C1200      H1204   1.085       .  S
C1201      H1211   1.111       .  S
C1201      H1212   1.109       .  S
C1201      H1213   1.111       .  S
C1203      H1214   1.111       .  S
C1203      H1215   1.109       .  S
C1203      H1216   1.110       .  S
C1217      C1218   1.400       .  A
C1217      C1222   1.400       .  A
C1217      H1227   1.084       .  S
C1218      C1223   1.473       .  S
C1218      C1219   1.408       .  A
C1219      C1220   1.399       .  A
C1219      C1224   1.507       .  S
C1220      C1221   1.406       .  A
C1220      H1225   1.086       .  S
C1221      C1222   1.417       .  A
C1222      C1226   1.508       .  S
C1223      C1228   1.412       .  A
C1223      C1232   1.388       .  A
C1224      H1240   1.110       .  S
C1224      H1241   1.110       .  S
C1224      H1242   1.111       .  S
C1226      H1237   1.110       .  S
C1226      H1238   1.110       .  S
C1226      H1239   1.103       .  S
C1228      C1229   1.410       .  A
C1228      C1233   1.504       .  S
C1229      C1230   1.403       .  A
C1229      H1234   1.083       .  S
C1230      C1231   1.427       .  A
C1231      C1232   1.392       .  A
C1231      C1235   1.510       .  S
C1232      H1236   1.085       .  S
C1233      H1243   1.110       .  S
C1233      H1244   1.110       .  S
C1233      H1245   1.111       .  S
C1235      H1246   1.107       .  S
C1235      H1247   1.111       .  S
C1235      H1248   1.105       .  S
C1249      C1250   1.401       .  A
C1249      C1254   1.410       .  A
C1249      H1259   1.085       .  S
C1250      C1255   1.490       .  S
C1250      C1251   1.408       .  A
C1251      C1252   1.406       .  A
C1251      C1256   1.506       .  S
C1252      C1253   1.411       .  A
C1252      H1257   1.085       .  S
C1253      C1254   1.424       .  A
C1254      C1258   1.508       .  S
C1255      C1260   1.409       .  A
C1255      C1264   1.404       .  A
C1256      H1272   1.110       .  S
C1256      H1273   1.110       .  S
C1256      H1274   1.111       .  S
C1258      H1269   1.111       .  S
C1258      H1270   1.110       .  S
C1258      H1271   1.110       .  S
C1260      C1261   1.404       .  A
C1260      C1265   1.507       .  S
C1261      C1262   1.409       .  A
C1261      H1266   1.085       .  S
C1262      C1263   1.418       .  A
C1263      C1264   1.411       .  A
C1263      C1267   1.507       .  S
C1264      H1268   1.084       .  S
C1265      H1275   1.111       .  S
C1265      H1276   1.110       .  S
C1265      H1277   1.110       .  S
C1267      H1278   1.111       .  S
C1267      H1279   1.110       .  S
C1267      H1280   1.111       .  S
C1281      C1282   1.400       .  A
C1281      C1286   1.408       .  A
C1281      H1291   1.086       .  S
C1282      C1287   1.489       .  S
C1282      C1283   1.411       .  A
C1283      C1284   1.406       .  A
C1283      C1288   1.507       .  S
C1284      C1285   1.409       .  A
C1284      H1289   1.083       .  S
C1285      C1286   1.423       .  A
C1286      C1290   1.508       .  S
C1287      C1292   1.408       .  A
C1287      C1296   1.402       .  A
C1288      H1304   1.110       .  S
C1288      H1305   1.110       .  S
C1288      H1306   1.111       .  S
C1290      H1301   1.110       .  S
C1290      H1302   1.111       .  S
C1290      H1303   1.109       .  S
C1292      C1293   1.406       .  A
C1292      C1297   1.507       .  S
C1293      C1294   1.413       .  A
C1293      H1298   1.082       .  S
C1294      C1295   1.422       .  A
C1295      C1296   1.409       .  A
C1295      C1299   1.507       .  S
C1296      H1300   1.084       .  S
C1297      H1307   1.110       .  S
C1297      H1308   1.110       .  S
C1297      H1309   1.110       .  S
C1299      H1310   1.111       .  S
C1299      H1311   1.110       .  S
C1299      H1312   1.111       .  S
C1313      C1314   1.400       .  A
C1313      C1318   1.405       .  A
C1313      H1323   1.084       .  S
C1314      C1319   1.480       .  S
C1314      C1315   1.409       .  A
C1315      C1316   1.403       .  A
C1315      C1320   1.507       .  S
C1316      C1317   1.407       .  A
C1316      H1321   1.084       .  S
C1317      C1318   1.420       .  A
C1318      C1322   1.507       .  S
C1319      C1324   1.410       .  A
C1319      C1328   1.395       .  A
C1320      H1336   1.110       .  S
C1320      H1337   1.109       .  S
C1320      H1338   1.111       .  S
C1322      H1333   1.108       .  S
C1322      H1334   1.111       .  S
C1322      H1335   1.110       .  S
C1324      C1325   1.405       .  A
C1324      C1329   1.506       .  S
C1325      C1326   1.406       .  A
C1325      H1330   1.085       .  S
C1326      C1327   1.428       .  A
C1327      C1328   1.403       .  A
C1327      C1331   1.510       .  S
C1328      H1332   1.085       .  S
C1329      H1339   1.111       .  S
C1329      H1340   1.110       .  S
C1329      H1341   1.109       .  S
C1331      H1342   1.109       .  S
C1331      H1343   1.110       .  S
C1331      H1344   1.111       .  S
C1345      C1346   1.402       .  A
C1345      C1350   1.408       .  A
C1345      H1355   1.085       .  S
C1346      C1351   1.485       .  S
C1346      C1347   1.408       .  A
C1347      C1348   1.402       .  A
C1347      C1352   1.507       .  S
C1348      C1349   1.409       .  A
C1348      H1353   1.085   1_545  S
C1349      C1350   1.420       .  A
C1350      C1354   1.507       .  S
C1351      C1356   1.410       .  A
C1351      C1360   1.399       .  A
C1352      H1368   1.110       .  S
C1352      H1369   1.110       .  S
C1352      H1370   1.111       .  S
C1354      H1365   1.109       .  S
C1354      H1366   1.111       .  S
C1354      H1367   1.110       .  S
C1356      C1357   1.403       .  A
C1356      C1361   1.508       .  S
C1357      C1358   1.409       .  A
C1357      H1362   1.084       .  S
C1358      C1359   1.424       .  A
C1359      C1360   1.407       .  A
C1359      C1363   1.507       .  S
C1360      H1364   1.083       .  S
C1361      H1371   1.111       .  S
C1361      H1372   1.110       .  S
C1361      H1373   1.110       .  S
C1363      H1374   1.109       .  S
C1363      H1375   1.110       .  S
C1363      H1376   1.111       .  S
C1377      C1378   1.399       .  A
C1377      C1382   1.404       .  A
C1377      H1387   1.084       .  S
C1378      C1383   1.482       .  S
C1378      C1379   1.412       .  A
C1379      C1380   1.406       .  A
C1379      C1384   1.507       .  S
C1380      C1381   1.405       .  A
C1380      H1385   1.084       .  S
C1381      C1382   1.419       .  A
C1382      C1386   1.510       .  S
C1383      C1388   1.405       .  A
C1383      C1392   1.404       .  A
C1384      H1400   1.110       .  S
C1384      H1401   1.110       .  S
C1384      H1402   1.111       .  S
C1386      H1397   1.109       .  S
C1386      H1398   1.111       .  S
C1386      H1399   1.108       .  S
C1388      C1389   1.398       .  A
C1388      C1393   1.508       .  S
C1389      C1390   1.412       .  A
C1389      H1394   1.084       .  S
C1390      C1391   1.420       .  A
C1391      C1392   1.411       .  A
C1391      C1395   1.507       .  S
C1392      H1396   1.084       .  S
C1393      H1403   1.111       .  S
C1393      H1404   1.110       .  S
C1393      H1405   1.110       .  S
C1395      H1406   1.111       .  S
C1395      H1407   1.109       .  S
C1395      H1408   1.111       .  S
C1409      C1410   1.403       .  A
C1409      C1414   1.404       .  A
C1409      H1419   1.085       .  S
C1410      C1415   1.483       .  S
C1410      C1411   1.412       .  A
C1411      C1412   1.404       .  A
C1411      C1416   1.506       .  S
C1412      C1413   1.402       .  A
C1412      H1417   1.085       .  S
C1413      C1414   1.412       .  A
C1414      C1418   1.507       .  S
C1415      C1420   1.414       .  A
C1415      C1424   1.393       .  A
C1416      H1432   1.110       .  S
C1416      H1433   1.110       .  S
C1416      H1434   1.111       .  S
C1418      H1429   1.110       .  S
C1418      H1430   1.111       .  S
C1418      H1431   1.110       .  S
C1420      C1421   1.411       .  A
C1420      C1425   1.505       .  S
C1421      C1422   1.407       .  A
C1421      H1426   1.084       .  S
C1422      C1423   1.424       .  A
C1423      C1424   1.399       .  A
C1423      C1427   1.509       .  S
C1424      H1428   1.085       .  S
C1425      H1435   1.111       .  S
C1425      H1436   1.110       .  S
C1425      H1437   1.111       .  S
C1427      H1438   1.111       .  S
C1427      H1439   1.108       .  S
C1427      H1440   1.109       .  S
C1441      C1442   1.389       .  A
C1441      C1446   1.395       .  A
C1441      H1451   1.085       .  S
C1442      C1447   1.477       .  S
C1442      C1443   1.413       .  A
C1443      C1444   1.411       .  A
C1443      C1448   1.505       .  S
C1444      C1445   1.404       .  A
C1444      H1449   1.083       .  S
C1445      C1446   1.430       .  A
C1446      C1450   1.512       .  S
C1447      C1452   1.414       .  A
C1447      C1456   1.400       .  A
C1448      H1464   1.111       .  S
C1448      H1465   1.110       .  S
C1448      H1466   1.111       .  S
C1450      H1461   1.111       .  S
C1450      H1462   1.108       .  S
C1450      H1463   1.104       .  S
C1452      C1453   1.406       .  A
C1452      C1457   1.507       .  S
C1453      C1454   1.404       .  A
C1453      H1458   1.084       .  S
C1454      C1455   1.412       .  A
C1455      C1456   1.397       .  A
C1455      C1459   1.509       .  S
C1456      H1460   1.085       .  S
C1457      H1467   1.111       .  S
C1457      H1468   1.110       .  S
C1457      H1469   1.109       .  S
C1459      H1470   1.110       .  S
C1459      H1471   1.109       .  S
C1459      H1472   1.111       .  S
C1473      C1474   1.401       .  A
C1473      C1478   1.410       .  A
C1473      H1483   1.084       .  S
C1474      C1479   1.490       .  S
C1474      C1475   1.410       .  A
C1475      C1476   1.405       .  A
C1475      C1480   1.506       .  S
C1476      C1477   1.407       .  A
C1476      H1481   1.084       .  S
C1477      C1478   1.425       .  A
C1478      C1482   1.509       .  S
C1479      C1484   1.411       .  A
C1479      C1488   1.397       .  A
C1480      H1496   1.110       .  S
C1480      H1497   1.110       .  S
C1480      H1498   1.111       .  S
C1482      H1493   1.110       .  S
C1482      H1494   1.111       .  S
C1482      H1495   1.111       .  S
C1484      C1485   1.410       .  A
C1484      C1489   1.505       .  S
C1485      C1486   1.410       .  A
C1485      H1490   1.083       .  S
C1486      C1487   1.428       .  A
C1487      C1488   1.405       .  A
C1487      C1491   1.510   1_455  S
C1488      H1492   1.084       .  S
C1489      H1499   1.111       .  S
C1489      H1500   1.110       .  S
C1489      H1501   1.110       .  S
C1491      H1502   1.111       .  S
C1491      H1503   1.110       .  S
C1491      H1504   1.110       .  S
C1505      C1506   1.401       .  A
C1505      C1510   1.407       .  A
C1505      H1515   1.084       .  S
C1506      C1511   1.479       .  S
C1506      C1507   1.407       .  A
C1507      C1508   1.399       .  A
C1507      C1512   1.507       .  S
C1508      C1509   1.409       .  A
C1508      H1513   1.084       .  S
C1509      C1510   1.420       .  A
C1510      C1514   1.507       .  S
C1511      C1516   1.405       .  A
C1511      C1520   1.400       .  A
C1512      H1528   1.110       .  S
C1512      H1529   1.110       .  S
C1512      H1530   1.111       .  S
C1514      H1525   1.110       .  S
C1514      H1526   1.111       .  S
C1514      H1527   1.111       .  S
C1516      C1517   1.401       .  A
C1516      C1521   1.507       .  S
C1517      C1518   1.410       .  A
C1517      H1522   1.083       .  S
C1518      C1519   1.424       .  A
C1519      C1520   1.406       .  A
C1519      C1523   1.508       .  S
C1520      H1524   1.085       .  S
C1521      H1531   1.111       .  S
C1521      H1532   1.110       .  S
C1521      H1533   1.109       .  S
C1523      H1534   1.110       .  S
C1523      H1535   1.110       .  S
C1523      H1536   1.111       .  S
C1537      C1538   1.401       .  A
C1537      C1542   1.407       .  A
C1537      H1547   1.085       .  S
C1538      C1543   1.482       .  S
C1538      C1539   1.406       .  A
C1539      C1540   1.401   1_556  A
C1539      C1544   1.507       .  S
C1540      C1541   1.413       .  A
C1540      H1545   1.084       .  S
C1541      C1542   1.420   1_554  A
C1542      C1546   1.505       .  S
C1543      C1548   1.406       .  A
C1543      C1552   1.400       .  A
C1544      H1560   1.110       .  S
C1544      H1561   1.110   1_556  S
C1544      H1562   1.111   1_556  S
C1546      H1557   1.111       .  S
C1546      H1558   1.108       .  S
C1546      H1559   1.110   1_556  S
C1548      C1549   1.404       .  A
C1548      C1553   1.506   1_556  S
C1549      C1550   1.413       .  A
C1549      H1554   1.083       .  S
C1550      C1551   1.422       .  A
C1551      C1552   1.405       .  A
C1551      C1555   1.508       .  S
C1552      H1556   1.085       .  S
C1553      H1563   1.111       .  S
C1553      H1564   1.110       .  S
C1553      H1565   1.110       .  S
C1555      H1566   1.110       .  S
C1555      H1567   1.110       .  S
C1555      H1568   1.111       .  S
C1569      C1570   1.402   1_455  A
C1569      C1574   1.407   1_455  A
C1569      H1579   1.084       .  S
C1570      C1575   1.480   1_664  S
C1570      C1571   1.407   1_565  A
C1571      C1572   1.400   1_545  A
C1571      C1576   1.507       .  S
C1572      C1573   1.409       .  A
C1572      H1577   1.084       .  S
C1573      C1574   1.417       .  A
C1574      C1578   1.506       .  S
C1575      C1580   1.413       .  A
C1575      C1584   1.399   1_455  A
C1576      H1592   1.110       .  S
C1576      H1593   1.110       .  S
C1576      H1594   1.111       .  S
C1578      H1589   1.111   1_655  S
C1578      H1590   1.110       .  S
C1578      H1591   1.111   1_655  S
C1580      C1581   1.407       .  A
C1580      C1585   1.506   1_556  S
C1581      C1582   1.403       .  A
C1581      H1586   1.084       .  S
C1582      C1583   1.411   1_455  A
C1583      C1584   1.400       .  A
C1583      C1587   1.507       .  S
C1584      H1588   1.085       .  S
C1585      H1595   1.111       .  S
C1585      H1596   1.110   1_545  S
C1585      H1597   1.110       .  S
C1587      H1598   1.109       .  S
C1587      H1599   1.111       .  S
C1587      H1600   1.111       .  S
C1601      C1602   1.409   1_545  A
C1601      C1606   1.408       .  A
C1601      H1611   1.084       .  S
C1602      C1607   1.487       .  S
C1602      C1603   1.413       .  A
C1603      C1604   1.398       .  A
C1603      C1608   1.510       .  S
C1604      C1605   1.400   1_565  A
C1604      H1609   1.080       .  S
C1605      C1606   1.410       .  A
C1606      C1610   1.505       .  S
C1607      C1612   1.417   1_455  A
C1607      C1616   1.400       .  A
C1608      H1624   1.108       .  S
C1608      H1625   1.111   1_455  S
C1608      H1626   1.111       .  S
C1610      H1621   1.110       .  S
C1610      H1622   1.110       .  S
C1610      H1623   1.110       .  S
C1612      C1613   1.408       .  A
C1612      C1617   1.507   1_565  S
C1613      C1614   1.403       .  A
C1613      H1618   1.083       .  S
C1614      C1615   1.417       .  A
C1615      C1616   1.397   1_655  A
C1615      C1619   1.509   1_655  S
C1616      H1620   1.085       .  S
C1617      H1627   1.111       .  S
C1617      H1628   1.109       .  S
C1617      H1629   1.110       .  S
C1619      H1630   1.110       .  S
C1619      H1631   1.110       .  S
C1619      H1632   1.109   1_455  S
C1633      C1634   1.402       .  A
C1633      C1638   1.407       .  A
C1633      H1643   1.083       .  S
C1634      C1639   1.484       .  S
C1634      C1635   1.411       .  A
C1635      C1636   1.402       .  A
C1635      C1640   1.506       .  S
C1636      C1637   1.403       .  A
C1636      H1641   1.085       .  S
C1637      C1638   1.416       .  A
C1638      C1642   1.504       .  S
C1639      C1644   1.411       .  A
C1639      C1648   1.395       .  A
C1640      H1656   1.110       .  S
C1640      H1657   1.110       .  S
C1640      H1658   1.111       .  S
C1642      H1653   1.105       .  S
C1642      H1654   1.111       .  S
C1642      H1655   1.110       .  S
C1644      C1645   1.407       .  A
C1644      C1649   1.506       .  S
C1645      C1646   1.408       .  A
C1645      H1650   1.083       .  S
C1646      C1647   1.428       .  A
C1647      C1648   1.402       .  A
C1647      C1651   1.511   1_655  S
C1648      H1652   1.085       .  S
C1649      H1659   1.111       .  S
C1649      H1660   1.110       .  S
C1649      H1661   1.110       .  S
C1651      H1662   1.111       .  S
C1651      H1663   1.110       .  S
C1651      H1664   1.110       .  S
C1665      C1666   1.403       .  A
C1665      C1670   1.410       .  A
C1665      H1675   1.084       .  S
C1666      C1671   1.482       .  S
C1666      C1667   1.405       .  A
C1667      C1668   1.399       .  A
C1667      C1672   1.508       .  S
C1668      C1669   1.411       .  A
C1668      H1673   1.084   1_565  S
C1669      C1670   1.419       .  A
C1670      C1674   1.508       .  S
C1671      C1676   1.408       .  A
C1671      C1680   1.402       .  A
C1672      H1688   1.110       .  S
C1672      H1689   1.109       .  S
C1672      H1690   1.111       .  S
C1674      H1685   1.111       .  S
C1674      H1686   1.107       .  S
C1674      H1687   1.110       .  S
C1676      C1677   1.404       .  A
C1676      C1681   1.507       .  S
C1677      C1678   1.408       .  A
C1677      H1682   1.085       .  S
C1678      C1679   1.416       .  A
C1679      C1680   1.406       .  A
C1679      C1683   1.506       .  S
C1680      H1684   1.085       .  S
C1681      H1691   1.111       .  S
C1681      H1692   1.110       .  S
C1681      H1693   1.110       .  S
C1683      H1694   1.108       .  S
C1683      H1695   1.110       .  S
C1683      H1696   1.111       .  S
C1697      C1698   1.402       .  A
C1697      C1702   1.408       .  A
C1697      H1707   1.084       .  S
C1698      C1703   1.479       .  S
C1698      C1699   1.406       .  A
C1699      C1700   1.399       .  A
C1699      C1704   1.508       .  S
C1700      C1701   1.410       .  A
C1700      H1705   1.084       .  S
C1701      C1702   1.419       .  A
C1702      C1706   1.507       .  S
C1703      C1708   1.408       .  A
C1703      C1712   1.402       .  A
C1704      H1720   1.110       .  S
C1704      H1721   1.110       .  S
C1704      H1722   1.111       .  S
C1706      H1717   1.111       .  S
C1706      H1718   1.111       .  S
C1706      H1719   1.110       .  S
C1708      C1709   1.402       .  A
C1708      C1713   1.506       .  S
C1709      C1710   1.406       .  A
C1709      H1714   1.084       .  S
C1710      C1711   1.415       .  A
C1711      C1712   1.404       .  A
C1711      C1715   1.507       .  S
C1712      H1716   1.084       .  S
C1713      H1723   1.111       .  S
C1713      H1724   1.110       .  S
C1713      H1725   1.110       .  S
C1715      H1726   1.109       .  S
C1715      H1727   1.111       .  S
C1715      H1728   1.111       .  S
C1729      C1730   1.399       .  A
C1729      C1734   1.399       .  A
C1729      H1739   1.084       .  S
C1730      C1735   1.482       .  S
C1730      C1731   1.414       .  A
C1731      C1732   1.409       .  A
C1731      C1736   1.506       .  S
C1732      C1733   1.403       .  A
C1732      H1737   1.083       .  S
C1733      C1734   1.412       .  A
C1734      C1738   1.508       .  S
C1735      C1740   1.408       .  A
C1735      C1744   1.405   1_565  A
C1736      H1752   1.110       .  S
C1736      H1753   1.111       .  S
C1736      H1754   1.111       .  S
C1738      H1749   1.111       .  S
C1738      H1750   1.109       .  S
C1738      H1751   1.111       .  S
C1740      C1741   1.399   1_565  A
C1740      C1745   1.508       .  S
C1741      C1742   1.407       .  A
C1741      H1746   1.085   1_545  S
C1742      C1743   1.415       .  A
C1743      C1744   1.410       .  A
C1743      C1747   1.506       .  S
C1744      H1748   1.083       .  S
C1745      H1755   1.111       .  S
C1745      H1756   1.109       .  S
C1745      H1757   1.111       .  S
C1747      H1758   1.110       .  S
C1747      H1759   1.111       .  S
C1747      H1760   1.111       .  S
C1761      C1762   1.401       .  A
C1761      C1766   1.401       .  A
C1761      H1771   1.086   1_565  S
C1762      C1767   1.477   1_554  S
C1762      C1763   1.407       .  A
C1763      C1764   1.400       .  A
C1763      C1768   1.506       .  S
C1764      C1765   1.407       .  A
C1764      H1769   1.085       .  S
C1765      C1766   1.418       .  A
C1766      C1770   1.507       .  S
C1767      C1772   1.403       .  A
C1767      C1776   1.407   1_566  A
C1768      H1784   1.110       .  S
C1768      H1785   1.110   1_554  S
C1768      H1786   1.111       .  S
C1770      H1781   1.110       .  S
C1770      H1782   1.110   1_565  S
C1770      H1783   1.102       .  S
C1772      C1773   1.395   1_565  A
C1772      C1777   1.509       .  S
C1773      C1774   1.414       .  A
C1773      H1778   1.083       .  S
C1774      C1775   1.410       .  A
C1775      C1776   1.410   1_556  A
C1775      C1779   1.503       .  S
C1776      H1780   1.084   1_545  S
C1777      H1787   1.111       .  S
C1777      H1788   1.110       .  S
C1777      H1789   1.110       .  S
C1779      H1790   1.111   1_556  S
C1779      H1791   1.110       .  S
C1779      H1792   1.110       .  S
C1793      C1794   1.402       .  A
C1793      C1798   1.409       .  A
C1793      H1803   1.085       .  S
C1794      C1799   1.484       .  S
C1794      C1795   1.406       .  A
C1795      C1796   1.402       .  A
C1795      C1800   1.507       .  S
C1796      C1797   1.412       .  A
C1796      H1801   1.083       .  S
C1797      C1798   1.421       .  A
C1798      C1802   1.507       .  S
C1799      C1804   1.406       .  A
C1799      C1808   1.401       .  A
C1800      H1816   1.110       .  S
C1800      H1817   1.110       .  S
C1800      H1818   1.111       .  S
C1802      H1813   1.111       .  S
C1802      H1814   1.110   1_554  S
C1802      H1815   1.110       .  S
C1804      C1805   1.402       .  A
C1804      C1809   1.507       .  S
C1805      C1806   1.412       .  A
C1805      H1810   1.083   1_545  S
C1806      C1807   1.422       .  A
C1807      C1808   1.408       .  A
C1807      C1811   1.508       .  S
C1808      H1812   1.083       .  S
C1809      H1819   1.111       .  S
C1809      H1820   1.110       .  S
C1809      H1821   1.110       .  S
C1811      H1822   1.109       .  S
C1811      H1823   1.110       .  S
C1811      H1824   1.111       .  S
C1825      C1826   1.400       .  A
C1825      C1830   1.406       .  A
C1825      H1835   1.084       .  S
C1826      C1831   1.483       .  S
C1826      C1827   1.407       .  A
C1827      C1828   1.404       .  A
C1827      C1832   1.506       .  S
C1828      C1829   1.410       .  A
C1828      H1833   1.084       .  S
C1829      C1830   1.420       .  A
C1830      C1834   1.501       .  S
C1831      C1836   1.404       .  A
C1831      C1840   1.403       .  A
C1832      H1848   1.110       .  S
C1832      H1849   1.110       .  S
C1832      H1850   1.111       .  S
C1834      H1845   1.111       .  S
C1834      H1846   1.106       .  S
C1834      H1847   1.110       .  S
C1836      C1837   1.402       .  A
C1836      C1841   1.506       .  S
C1837      C1838   1.413       .  A
C1837      H1842   1.083       .  S
C1838      C1839   1.421       .  A
C1839      C1840   1.408       .  A
C1839      C1843   1.508       .  S
C1840      H1844   1.083       .  S
C1841      H1851   1.111       .  S
C1841      H1852   1.110       .  S
C1841      H1853   1.110       .  S
C1843      H1854   1.110       .  S
C1843      H1855   1.111       .  S
C1843      H1856   1.111       .  S
C1857      C1858   1.395       .  A
C1857      C1862   1.402       .  A
C1857      H1867   1.083       .  S
C1858      C1863   1.481       .  S
C1858      C1859   1.411       .  A
C1859      C1860   1.406       .  A
C1859      C1864   1.507       .  S
C1860      C1861   1.407       .  A
C1860      H1865   1.083       .  S
C1861      C1862   1.428       .  A
C1862      C1866   1.511       .  S
C1863      C1868   1.409       .  A
C1863      C1872   1.402       .  A
C1864      H1880   1.110       .  S
C1864      H1881   1.111       .  S
C1864      H1882   1.110       .  S
C1866      H1877   1.111       .  S
C1866      H1878   1.110       .  S
C1866      H1879   1.110       .  S
C1868      C1869   1.400       .  A
C1868      C1873   1.507       .  S
C1869      C1870   1.406       .  A
C1869      H1874   1.085       .  S
C1870      C1871   1.418       .  A
C1871      C1872   1.404       .  A
C1871      C1875   1.509       .  S
C1872      H1876   1.086       .  S
C1873      H1883   1.111       .  S
C1873      H1884   1.110       .  S
C1873      H1885   1.110       .  S
C1875      H1886   1.110   1_554  S
C1875      H1887   1.103   1_554  S
C1875      H1888   1.111       .  S
