geometry optimzed in LAMMPS
_audit_creation_date              2020-12-01 
_audit_creation_method            'lammps2cif' 
_symmetry_space_group_name_H-M    'P1' 
_symmetry_Int_Tables_number       1 
_symmetry_cell_setting            triclinic 
loop_ 
_symmetry_equiv_pos_as_xyz 
  x,y,z 
_cell_length_a                    33.36853732 
_cell_length_b                    33.45708142659253 
_cell_length_c                    64.80437189835108 
_cell_angle_alpha                 90.16030774160333 
_cell_angle_beta                  90.36592511229085 
_cell_angle_gamma                 119.93180530690618 
loop_ 
_atom_site_label 
_atom_site_type_symbol 
_atom_site_fract_x 
_atom_site_fract_y 
_atom_site_fract_z 
_atom_site_charge 
O1          O  0.67775896  0.84049451  0.32812775    -0.80200
O2          O  0.72362374  0.81524885  0.42035427    -0.64900
O3          O  0.68255786  0.79539798  0.36396858    -1.11500
C4          C  0.56475462  0.82186865  0.39086415     1.06600
O5          O  0.65258499  0.77004581  0.43148133    -0.78100
O6          O  0.57449041  0.73722360  0.40777467    -0.65700
Ni7        Ni  0.72406769  0.83349159  0.34314569     1.34900
C8          C  0.56711591  0.71800811  0.39013750     0.85400
O9          O  0.75442547  0.79513613  0.38609748    -0.78700
O10         O  0.77506002  0.82976020  0.35536657    -0.89000
C11         C  0.69626013  0.78944271  0.43420340     0.85000
O12         O  0.74193493  0.89054630  0.35679512    -0.67200
O13         O  0.58013023  0.82067619  0.40884847    -0.86400
C14         C  0.75665455  0.90216752  0.37514999     0.85800
C15         C  0.78290249  0.81210517  0.37127080     1.07400
H16         H  0.66957642  0.85325331  0.39695128     0.39200
O17         O  0.65635522  0.82023736  0.39582316    -1.09100
O18         O  0.59135735  0.73853517  0.37437981    -0.65800
Ni19       Ni  0.63062579  0.80355629  0.36862919     1.26300
O20         O  0.74852657  0.87270800  0.38922605    -0.66000
O21         O  0.57962761  0.81341758  0.37422017    -0.78300
C22         C  0.63492027  0.81212303  0.32545568     0.85200
O23         O  0.60959437  0.78862285  0.34039274    -0.65500
Ni24       Ni  0.61765295  0.79606374  0.41909285     1.27400
Ni25       Ni  0.70536476  0.80722713  0.39180234     1.26100
H26         H  0.67212834  0.76354597  0.36053408     0.39700
O27         O  0.83500492  0.68579789  0.67488526    -0.80200
O28         O  0.81708889  0.72237847  0.57985616    -0.64900
O29         O  0.79400391  0.68448240  0.63635010    -1.11500
C30         C  0.82846035  0.56947768  0.61296869     1.06600
O31         O  0.77490812  0.65087133  0.56831820    -0.78100
O32         O  0.74032249  0.57582105  0.59339270    -0.65700
Ni33       Ni  0.82910497  0.72902590  0.65726153     1.34900
C34         C  0.72136642  0.56874263  0.61097952     0.85400
O35         O  0.79109147  0.75226809  0.61244220    -0.78700
O36         O  0.82659691  0.77838562  0.64285895    -0.89000
C37         C  0.79334894  0.69425790  0.56557682     0.85000
O38         O  0.88694822  0.74445378  0.64551720    -0.67200
O39         O  0.82429867  0.58082671  0.59459488    -0.86400
C40         C  0.90022452  0.75904993  0.62743022     0.85800
C41         C  0.80779099  0.78303045  0.62650368     1.07400
H42         H  0.85641370  0.67297151  0.60478460     0.39200
O43         O  0.82317347  0.65852733  0.60563427    -1.09100
O44         O  0.74265465  0.59230217  0.62696645    -0.65800
Ni45       Ni  0.80709463  0.63528117  0.63301519     1.26300
O46         O  0.87194265  0.75070935  0.61253775    -0.66000
O47         O  0.82147679  0.58705431  0.62905662    -0.78300
C48         C  0.81379204  0.64209667  0.67628280     0.85200
O49         O  0.79296822  0.61582624  0.66103362    -0.65500
Ni50       Ni  0.80013266  0.61735662  0.58271615     1.27400
Ni51       Ni  0.80701077  0.70545918  0.60838268     1.26100
H52         H  0.76148179  0.67228744  0.63897452     0.39700
O53         O  0.18166265  0.86825266  0.32682864    -0.80200
O54         O  0.18453362  0.90749581  0.42323520    -0.64900
O55         O  0.21336119  0.89662415  0.36725409    -1.11500
C56         C  0.16616054  0.74180263  0.38783881     1.06600
O57         O  0.22160893  0.87294445  0.43513711    -0.78100
O58         O  0.25439976  0.83066130  0.41021027    -0.65700
Ni59       Ni  0.18393299  0.91278971  0.34615861     1.34900
C60         C  0.27567342  0.84334330  0.39318526     0.85400
O61         O  0.21824183  0.96750111  0.39241500    -0.78700
O62         O  0.18503390  0.96229600  0.36186423    -0.89000
C63         C  0.20680082  0.90119366  0.43756069     0.85000
O64         O  0.12359501  0.86973729  0.35556623    -0.67200
O65         O  0.16839185  0.75556300  0.40646016    -0.86400
C66         C  0.10794279  0.87001152  0.37333963     0.85800
C67         C  0.20469545  0.98451294  0.37830973     1.07400
H68         H  0.14354235  0.82173139  0.39652380     0.39200
O69         O  0.17693680  0.83853335  0.39647889    -1.09100
O70         O  0.25734414  0.84853398  0.37681548    -0.65800
Ni71       Ni  0.19483349  0.83224275  0.36929140     1.26300
O72         O  0.13438978  0.88777910  0.38904135    -0.66000
O73         O  0.17603234  0.76814783  0.37223334    -0.78300
C74         C  0.19810126  0.84132392  0.32550581     0.85200
O75         O  0.21064371  0.82753294  0.34125300    -0.65500
Ni76       Ni  0.19445213  0.81543401  0.41954909     1.27400
Ni77       Ni  0.19760980  0.90293070  0.39498895     1.26100
H78         H  0.24646852  0.91504152  0.36562943     0.39700
O79         O  0.31547799  0.15761019  0.67447279    -0.80200
O80         O  0.27892669  0.09278845  0.58156934    -0.64900
O81         O  0.31574568  0.11135327  0.63820557    -1.11500
C82         C  0.43272657  0.25835376  0.61416497     1.06600
O83         O  0.35080134  0.12148119  0.57090769    -0.78100
O84         O  0.42569278  0.16419850  0.59618513    -0.65700
Ni85       Ni  0.27218038  0.10374366  0.65882458     1.34900
C86         C  0.43087059  0.15085893  0.61383656     0.85400
O87         O  0.24863934  0.03918325  0.61474701    -0.78700
O88         O  0.22470439  0.04773761  0.64587916    -0.89000
C89         C  0.30739752  0.09594488  0.56793077     0.85000
O90         O  0.25113205  0.14069793  0.64554904    -0.67200
O91         O  0.41978494  0.24253939  0.59586550    -0.86400
C92         C  0.23891277  0.13992819  0.62692341     0.85800
C93         C  0.22038898  0.02392396  0.62969542     1.07400
H94         H  0.32800292  0.18326609  0.60585058     0.39200
O95         O  0.34236802  0.16445578  0.60707734    -1.09100
O96         O  0.40646990  0.14823428  0.62930321    -0.65800
Ni97       Ni  0.36596414  0.17242280  0.63460917     1.26300
O98         O  0.24956748  0.12094628  0.61259788    -0.66000
O99         O  0.41615668  0.23413376  0.63036536    -0.78300
C100        C  0.35856552  0.17364895  0.67737780     0.85200
O101        O  0.38512948  0.17717197  0.66274403    -0.65500
Ni102      Ni  0.38371757  0.18119622  0.58453153     1.27400
Ni103      Ni  0.29522519  0.10156477  0.61015918     1.26100
H104        H  0.32738382  0.09080935  0.64140591     0.39700
O105        O  0.15012201  0.31322656  0.32845520    -0.80200
O106        O  0.09469552  0.28739132  0.42276213    -0.64900
O107        O  0.10788182  0.31795231  0.36539567    -1.11500
C108        C  0.25892114  0.43343151  0.38715934     1.06600
O109        O  0.12508918  0.36054699  0.43214064    -0.78100
O110        O  0.16797402  0.43277081  0.40595409    -0.65700
Ni111      Ni  0.09865505  0.27207267  0.34546284     1.34900
C112        C  0.15264839  0.43677012  0.38854574     0.85400
O113        O  0.03763741  0.25282377  0.39019618    -0.78700
O114        O  0.04487306  0.22563101  0.35964644    -0.89000
C115        C  0.09914806  0.31770516  0.43585432     0.85000
O116        O  0.13833973  0.25431543  0.35869111    -0.67200
O117        O  0.24459040  0.42318151  0.40571467    -0.86400
C118        C  0.13815542  0.24272356  0.37729347     0.85800
C119        C  0.02213834  0.22227986  0.37596864     1.07400
H120        H  0.18264326  0.33258342  0.39701865     0.39200
O121        O  0.16397980  0.34713502  0.39584260    -1.09100
O122        O  0.14768625  0.41070795  0.37318419    -0.65800
Ni123      Ni  0.16978472  0.36790126  0.36805044     1.26300
O124        O  0.11967984  0.25394922  0.39164813    -0.66000
O125        O  0.23263405  0.41674316  0.37134847    -0.78300
C126        C  0.16827944  0.35625982  0.32526753     0.85200
O127        O  0.17282042  0.38419822  0.33959545    -0.65500
Ni128      Ni  0.18397537  0.39045589  0.41786843     1.27400
Ni129      Ni  0.10065325  0.30010444  0.39379893     1.26100
H130        H  0.08725775  0.32950116  0.36215483     0.39700
O131        O  0.84896314  0.16343888  0.67142572    -0.80200
O132        O  0.90415789  0.18867420  0.57709699    -0.64900
O133        O  0.88942819  0.20764022  0.63397774    -1.11500
C134        C  0.73708954  0.16869897  0.61252802     1.06600
O135        O  0.86772392  0.22454882  0.56565877    -0.78100
O136        O  0.82571408  0.25588955  0.59188223    -0.65700
Ni137      Ni  0.89935122  0.17199256  0.65402927     1.34900
C138        C  0.84089251  0.27667353  0.60907155     0.85400
O139        O  0.96100935  0.21433276  0.60967056    -0.78700
O140        O  0.95253470  0.17801203  0.63964831    -0.89000
C141        C  0.89784109  0.21196606  0.56336579     0.85000
O142        O  0.85873044  0.11454406  0.64100298    -0.67200
O143        O  0.74996576  0.16976886  0.59389336    -0.86400
C144        C  0.86063485  0.10263554  0.62262224     0.85800
C145        C  0.97633108  0.19904392  0.62385436     1.07400
H146        H  0.81534849  0.14406604  0.60296947     0.39200
O147        O  0.83289863  0.17733676  0.60358534    -1.09100
O148        O  0.84739974  0.25763828  0.62477769    -0.65800
Ni149      Ni  0.82704077  0.19407987  0.63119218     1.26300
O150        O  0.88061449  0.13201068  0.60839203    -0.66000
O151        O  0.76412922  0.17946549  0.62805263    -0.78300
C152        C  0.82907735  0.18703448  0.67410980     0.85200
O153        O  0.82401044  0.20933990  0.65947075    -0.65500
Ni154      Ni  0.81005374  0.19667578  0.58103912     1.27400
Ni155      Ni  0.89721436  0.19626758  0.60577720     1.26100
H156        H  0.90944030  0.23996546  0.63713546     0.39700
O157        O  0.16790477  0.30894194  0.17290445    -0.80200
O158        O  0.17982938  0.26706991  0.07939029    -0.64900
O159        O  0.20800769  0.30951526  0.13499049    -1.11500
C160        C  0.15891705  0.41478863  0.11192309     1.06600
O161        O  0.21606105  0.33840563  0.06759804    -0.78100
O162        O  0.24501965  0.41564011  0.09068837    -0.65700
Ni163      Ni  0.17918055  0.26714353  0.15687595     1.34900
C164        C  0.26877869  0.42440628  0.10718989     0.85400
O165        O  0.21270924  0.24139260  0.11124249    -0.78700
O166        O  0.18822769  0.22071466  0.14357926    -0.89000
C167        C  0.20253893  0.29567317  0.06538079     0.85000
O168        O  0.11796161  0.24103320  0.14617155    -0.67200
O169        O  0.15694427  0.39882699  0.09377225    -0.86400
C170        C  0.10310947  0.22644376  0.12808631     0.85800
C171        C  0.20335493  0.21432470  0.12656479     1.07400
H172        H  0.13766523  0.31236005  0.10555531     0.39200
O173        O  0.17105136  0.32905268  0.10521960    -1.09100
O174        O  0.25330962  0.40005795  0.12341867    -0.65800
Ni175      Ni  0.19114685  0.35621233  0.13180593     1.26300
O176        O  0.12961191  0.23759164  0.11259314    -0.66000
O177        O  0.17332914  0.40253593  0.12772272    -0.78300
C178        C  0.19052167  0.35258742  0.17479737     0.85200
O179        O  0.20981259  0.37876113  0.15948394    -0.65500
Ni180      Ni  0.18599183  0.36716862  0.08168190     1.27400
Ni181      Ni  0.19232975  0.28560659  0.10752908     1.26100
H182        H  0.24110869  0.32375607  0.13683126     0.39700
O183        O  0.30637531  0.14875163  0.83062587    -0.80200
O184        O  0.27433395  0.17347143  0.92463567    -0.64900
O185        O  0.30751910  0.19209300  0.86791770    -1.11500
C186        C  0.42131690  0.15544225  0.89119728     1.06600
O187        O  0.34756196  0.21621187  0.93415580    -0.78100
O188        O  0.42265008  0.24209507  0.90991887    -0.65700
Ni189      Ni  0.26252795  0.15435925  0.84788771     1.34900
C190        C  0.42751664  0.26282647  0.89292440     0.85400
O191        O  0.24145886  0.19704997  0.89185014    -0.78700
O192        O  0.21371524  0.15784049  0.86224348    -0.89000
C193        C  0.30466545  0.19912961  0.93782412     0.85000
O194        O  0.24883729  0.09792485  0.86090783    -0.67200
O195        O  0.40703800  0.15482465  0.90951038    -0.86400
C196        C  0.23432626  0.08628584  0.87915175     0.85800
C197        C  0.21043376  0.17959540  0.87780338     1.07400
H198        H  0.31977238  0.13048750  0.89893874     0.39200
O199        O  0.33460425  0.16369354  0.89837501    -1.09100
O200        O  0.39930747  0.24463267  0.87785971    -0.65800
Ni201      Ni  0.35769158  0.18059030  0.87123097     1.26300
O202        O  0.24176152  0.11595864  0.89318272    -0.66000
O203        O  0.40717177  0.16767947  0.87535545    -0.78300
C204        C  0.34962029  0.17517681  0.82821927     0.85200
O205        O  0.37656377  0.19646518  0.84326022    -0.65500
Ni206      Ni  0.37612137  0.18492570  0.92105218     1.27400
Ni207      Ni  0.28823246  0.18077574  0.89597057     1.26100
H208        H  0.31881776  0.22414817  0.86471529     0.39700
O209        O  0.13326567  0.81037832  0.17497961    -0.80200
O210        O  0.09808507  0.81185929  0.07806082    -0.64900
O211        O  0.10568687  0.78203728  0.13429598    -1.11500
C212        C  0.25749111  0.81865899  0.11354910     1.06600
O213        O  0.12508115  0.76726790  0.06724635    -0.78100
O214        O  0.16398545  0.73060736  0.09227526    -0.65700
Ni215      Ni  0.09345821  0.81542717  0.15488136     1.34900
C216        C  0.15044724  0.71073292  0.10960119     0.85400
O217        O  0.03816087  0.78307704  0.10901147    -0.78700
O218        O  0.04845984  0.82137574  0.13839351    -0.89000
C219        C  0.10117833  0.78685657  0.06413124     0.85000
O220        O  0.14195857  0.87385290  0.14547842    -0.67200
O221        O  0.24290203  0.81473000  0.09497303    -0.86400
C222        C  0.14232594  0.88979881  0.12760753     0.85800
C223        C  0.02449321  0.80136021  0.12236758     1.07400
H224        H  0.18347262  0.84663891  0.10458095     0.39200
O225        O  0.16412733  0.81349907  0.10500983    -1.09100
O226        O  0.14766403  0.73148404  0.12558706    -0.65800
Ni227      Ni  0.16873478  0.79535054  0.13235952     1.26300
O228        O  0.12218494  0.86327855  0.11213360    -0.66000
O229        O  0.23196384  0.81004475  0.12939770    -0.78300
C230        C  0.15759966  0.79091660  0.17620096     0.85200
O231        O  0.17169453  0.77891443  0.16044777    -0.65500
Ni232      Ni  0.18306867  0.79123125  0.08224809     1.27400
Ni233      Ni  0.10128370  0.79847592  0.10646501     1.26100
H234        H  0.08498852  0.74938850  0.13614165     0.39700
O235        O  0.84560950  0.67456624  0.83153913    -0.80200
O236        O  0.89601837  0.71036205  0.92320353    -0.64900
O237        O  0.88778507  0.67050310  0.86763479    -1.11500
C238        C  0.73837152  0.55203563  0.88830625     1.06600
O239        O  0.87075632  0.63947147  0.93439832    -0.78100
O240        O  0.83511153  0.56458951  0.90940861    -0.65700
Ni241      Ni  0.90433258  0.71167609  0.84517996     1.34900
C242        C  0.84761856  0.55748807  0.89197292     0.85400
O243        O  0.95490976  0.74245601  0.89180080    -0.78700
O244        O  0.96405224  0.75173733  0.85743048    -0.89000
C245        C  0.89532024  0.68304380  0.93691712     0.85000
O246        O  0.88263059  0.75059715  0.85542589    -0.67200
O247        O  0.75334435  0.56385427  0.90681148    -0.86400
C248        C  0.87060509  0.75743221  0.87299683     0.85800
C249        C  0.97901185  0.76302696  0.87596980     1.07400
H250        H  0.80983591  0.65689217  0.89723452     0.39200
O251        O  0.82989781  0.64380677  0.89673449    -1.09100
O252        O  0.84791356  0.57900957  0.87574989    -0.65800
Ni253      Ni  0.82545800  0.62070300  0.86933996     1.26300
O254        O  0.87022583  0.73539139  0.88905454    -0.66000
O255        O  0.76280471  0.57064330  0.87229402    -0.78300
C256        C  0.82957413  0.63232335  0.82696429     0.85200
O257        O  0.82385919  0.60339851  0.84093957    -0.65500
Ni258      Ni  0.81281918  0.60328729  0.91950796     1.27400
Ni259      Ni  0.89240309  0.69303751  0.89491329     1.26100
H260        H  0.90807379  0.65770204  0.86691963     0.39700
O261        O  0.68008102  0.83201736  0.17092878    -0.80200
O262        O  0.71722016  0.89946027  0.07811674    -0.64900
O263        O  0.68099783  0.87916847  0.13471347    -1.11500
C264        C  0.56038316  0.73478730  0.10862652     1.06600
O265        O  0.64564307  0.87248428  0.06683033    -0.78100
O266        O  0.57111998  0.83172928  0.09180725    -0.65700
Ni267      Ni  0.72486550  0.88298173  0.15471415     1.34900
C268        C  0.56638321  0.84441481  0.10969634     0.85400
O269        O  0.74963615  0.95123957  0.11216104    -0.78700
O270        O  0.77470823  0.93601900  0.14156687    -0.89000
C271        C  0.68916074  0.89742475  0.06431773     0.85000
O272        O  0.73893102  0.84167982  0.14042257    -0.67200
O273        O  0.57329429  0.75135189  0.09056963    -0.86400
C274        C  0.75340076  0.84590498  0.12206260     0.85800
C275        C  0.77987854  0.96246690  0.12643571     1.07400
H276        H  0.66580294  0.80793009  0.10121820     0.39200
O277        O  0.65237443  0.82750181  0.10276986    -1.09100
O278        O  0.59010258  0.84498756  0.12528081    -0.65800
Ni279      Ni  0.62929714  0.81896414  0.13035211     1.26300
O280        O  0.74507860  0.86832340  0.10854998    -0.66000
O281        O  0.57788741  0.75799352  0.12520913    -0.78300
C282        C  0.63721078  0.81702791  0.17369401     0.85200
O283        O  0.61066539  0.81370896  0.15878003    -0.65500
Ni284      Ni  0.61112383  0.81270426  0.07994568     1.27400
Ni285      Ni  0.70101650  0.88973646  0.10665652     1.26100
H286        H  0.67069448  0.90049129  0.13856566     0.39700
O287        O  0.82673277  0.14498424  0.82679470    -0.80200
O288        O  0.80879590  0.08414073  0.91981281    -0.64900
O289        O  0.78393616  0.09877988  0.86342915    -1.11500
C290        C  0.81646593  0.24697716  0.88753984     1.06600
O291        O  0.76666209  0.11357745  0.93117879    -0.78100
O292        O  0.73207543  0.15539232  0.90730280    -0.65700
Ni293      Ni  0.81900154  0.09206253  0.84204846     1.34900
C294        C  0.71023743  0.13888661  0.89046269     0.85400
O295        O  0.78472247  0.02906082  0.88652825    -0.78700
O296        O  0.81367074  0.03737509  0.85459607    -0.89000
C297        C  0.78555140  0.08903150  0.93404275     0.85000
O298        O  0.87808611  0.13044741  0.85455233    -0.67200
O299        O  0.81686937  0.23257673  0.90572772    -0.86400
C300        C  0.89131032  0.13054173  0.87295557     0.85800
C301        C  0.79793203  0.01455685  0.87123610     1.07400
H302        H  0.84609721  0.17302391  0.89441388     0.39200
O303        O  0.81286191  0.15363954  0.89412321    -1.09100
O304        O  0.72922126  0.13409871  0.87436992    -0.65800
Ni305      Ni  0.79328632  0.15942390  0.86711821     1.26300
O306        O  0.86305662  0.11193589  0.88766571    -0.66000
O307        O  0.80425319  0.22114616  0.87149447    -0.78300
C308        C  0.79881579  0.16008367  0.82427746     0.85200
O309        O  0.77536120  0.16217009  0.83918291    -0.65500
Ni310      Ni  0.79222214  0.17229377  0.91741178     1.27400
Ni311      Ni  0.79817356  0.09094766  0.89122796     1.26100
H312        H  0.75160683  0.07732089  0.86071874     0.39700
C313        C  0.77004350  0.97860555  0.02289000    -0.27600
C314        C  0.73858804  0.98189845  0.00947429     0.06100
C315        C  0.69109453  0.95614035  0.01385916     0.25700
C316        C  0.67559561  0.92875422  0.03151604    -0.12000
C317        C  0.70690107  0.92610269  0.04531746    -0.26000
C318        C  0.75456177  0.95124695  0.04068802     0.36500
C319        C  0.75487399  0.01236144  0.99104431     0.06100
F320        F  0.65943606  0.95691390  0.00085162    -0.19800
H321        H  0.63878412  0.90973333  0.03441489     0.15900
F322        F  0.78632646  0.94954820  0.05328386    -0.23500
H323        H  0.80675908  0.99793453  0.01977012     0.17700
C324        C  0.74054509  0.04484974  0.98771940     0.25700
C325        C  0.75154547  0.07003412  0.96942559    -0.12000
C326        C  0.77766563  0.06406619  0.95400259    -0.26000
C327        C  0.79461751  0.03363667  0.95791257     0.36600
C328        C  0.78312842  0.00799697  0.97624752    -0.27700
F329        F  0.71572824  0.05224294  0.00221971    -0.19800
H330        H  0.73892386  0.09394230  0.96727258     0.15900
F331        F  0.82152095  0.02791432  0.94395070    -0.23500
H332        H  0.79517773  0.98368609  0.97861960     0.17700
C333        C  0.86274128  0.86404873  0.86125538    -0.27600
C334        C  0.83090454  0.86163401  0.87592483     0.06100
C335        C  0.81333683  0.82550195  0.89033698     0.25700
C336        C  0.82683759  0.79195549  0.88968107    -0.12000
C337        C  0.85760287  0.79369281  0.87452672    -0.26000
C338        C  0.87605389  0.83068819  0.86052269     0.36500
C339        C  0.81621945  0.89682551  0.87555854     0.06100
F340        F  0.78189431  0.82164667  0.90452682    -0.19800
H341        H  0.81232838  0.76398901  0.90066864     0.15900
F342        F  0.90769327  0.83521741  0.84626526    -0.23500
H343        H  0.87753521  0.89209526  0.85029993     0.17700
C344        C  0.81827732  0.92190497  0.89338777     0.25700
C345        C  0.80878578  0.95813762  0.89214205    -0.12000
C346        C  0.79835257  0.97075471  0.87305491    -0.26000
C347        C  0.79480920  0.94466422  0.85535472     0.36600
C348        C  0.80333986  0.90793904  0.85668677    -0.27700
F349        F  0.83278926  0.91375048  0.91168299    -0.19800
H350        H  0.81262074  0.97828126  0.90588801     0.15900
F351        F  0.78435365  0.95541145  0.83663745    -0.23500
H352        H  0.80120163  0.88889203  0.84277985     0.17700
C353        C  0.82312682  0.35848542  0.87011613    -0.27600
C354        C  0.85548939  0.39019857  0.88433414     0.06100
C355        C  0.87697423  0.37486164  0.89845284     0.25700
C356        C  0.86476886  0.32849105  0.89895051    -0.12000
C357        C  0.83127617  0.29639769  0.88528620    -0.26000
C358        C  0.81107454  0.31190921  0.87052296     0.36500
C359        C  0.86182675  0.43720572  0.88632505     0.06100
F360        F  0.90903950  0.40458308  0.91214942    -0.19800
H361        H  0.88117225  0.31748864  0.91030112     0.15900
F362        F  0.77762896  0.28173188  0.85742981    -0.23500
H363        H  0.80538576  0.36929778  0.85940109     0.17700
C364        C  0.86955066  0.46559270  0.86910648     0.25700
C365        C  0.86805327  0.50658082  0.87116191    -0.12000
C366        C  0.85913871  0.51999354  0.89044333    -0.26000
C367        C  0.85549591  0.49329860  0.90790567     0.36600
C368        C  0.85624351  0.45227768  0.90573624    -0.27700
F369        F  0.87748891  0.45318736  0.85027716    -0.19800
H370        H  0.87187209  0.52669959  0.85749461     0.15900
F371        F  0.84859897  0.50517874  0.92705569    -0.23500
H372        H  0.85011220  0.43104007  0.91924085     0.17700
C373        C  0.98343765  0.76534089  0.97660130    -0.27600
C374        C  0.98595188  0.73430755  0.99036404     0.06100
C375        C  0.95761753  0.68671505  0.98679246     0.25700
C376        C  0.92786799  0.67060462  0.96967150    -0.12000
C377        C  0.92571644  0.70145401  0.95557594    -0.26000
C378        C  0.95398690  0.74925708  0.95927408     0.36500
C379        C  0.01814750  0.75134071  0.00837850     0.06100
F380        F  0.95828780  0.65567946  0.00003962    -0.19800
H381        H  0.90675355  0.63369414  0.96738046     0.15900
F382        F  0.95368429  0.78057760  0.94610859    -0.23500
H383        H  0.00503066  0.80214763  0.97907486     0.17700
C384        C  0.05091057  0.73712273  0.01129070     0.25700
C385        C  0.07853300  0.75000592  0.02910375    -0.12000
C386        C  0.07428907  0.77743117  0.04448344    -0.26000
C387        C  0.04287689  0.79349767  0.04107365     0.36600
C388        C  0.01520686  0.78052655  0.02316464    -0.27700
F389        F  0.05612661  0.71056886  0.99688550    -0.19800
H390        H  0.10280919  0.73769434  0.03098333     0.15900
F391        F  0.03786919  0.82069074  0.05519939    -0.23500
H392        H  0.99039900  0.79213949  0.02112953     0.17700
C393        C  0.85000066  0.83316163  0.09837294    -0.27600
C394        C  0.85301596  0.80295320  0.11240363     0.06100
C395        C  0.81879150  0.78159236  0.12746632     0.25700
C396        C  0.78435199  0.79331452  0.12957443    -0.12000
C397        C  0.78346834  0.82660914  0.11672413    -0.26000
C398        C  0.81546871  0.84500424  0.10044628     0.36500
C399        C  0.89625868  0.80132979  0.11422293     0.06100
F400        F  0.82071452  0.75180882  0.14107830    -0.19800
H401        H  0.75982576  0.77810965  0.14201103     0.15900
F402        F  0.81611928  0.87744407  0.08769134    -0.23500
H403        H  0.87648722  0.85031529  0.08683938     0.17700
C404        C  0.91229694  0.78419333  0.09842806     0.25700
C405        C  0.95399790  0.78395514  0.10103340    -0.12000
C406        C  0.98030738  0.80129069  0.11932913    -0.26000
C407        C  0.96399680  0.81906740  0.13489745     0.36600
C408        C  0.92256806  0.81889339  0.13228620    -0.27700
F409        F  0.88734465  0.76707541  0.08075374    -0.19800
H410        H  0.96569009  0.77032063  0.08875566     0.15900
F411        F  0.98776883  0.83667570  0.15282125    -0.23500
H412        H  0.91100672  0.83295341  0.14445637     0.17700
C413        C  0.47075820  0.85855313  0.13382941    -0.27600
C414        C  0.44643964  0.85917696  0.11616357     0.06100
C415        C  0.46583481  0.86192629  0.09664399     0.25700
C416        C  0.50678696  0.86059464  0.09485752    -0.12000
C417        C  0.52930675  0.85621162  0.11240523    -0.26000
C418        C  0.51183178  0.85712394  0.13205258     0.36500
C419        C  0.39924432  0.85285585  0.11789837     0.06100
F420        F  0.44352056  0.86237348  0.07912962    -0.19800
H421        H  0.51953149  0.86056306  0.07953008     0.15900
F422        F  0.53261688  0.85378539  0.14951669    -0.23500
H423        H  0.45700252  0.85747455  0.14904014     0.17700
C424        C  0.36511656  0.81638175  0.12958110     0.25700
C425        C  0.31931147  0.80705527  0.12908023    -0.12000
C426        C  0.30664503  0.83315301  0.11658470    -0.26000
C427        C  0.34085886  0.87058780  0.10554349     0.36600
C428        C  0.38681112  0.88061407  0.10639968    -0.27700
F429        F  0.37529758  0.78777220  0.14033906    -0.19800
H430        H  0.29322847  0.77777357  0.13751269     0.15900
F431        F  0.32964915  0.89706363  0.09371473    -0.23500
H432        H  0.41253382  0.90934636  0.09758598     0.17700
C433        C  0.52808180  0.37011661  0.86931573    -0.27600
C434        C  0.55569553  0.39149279  0.88684137     0.06100
C435        C  0.53955337  0.37164181  0.90628715     0.25700
C436        C  0.49704385  0.33114231  0.90811169    -0.12000
C437        C  0.46941032  0.30910139  0.89062818    -0.26000
C438        C  0.48524646  0.32940329  0.87112756     0.36500
C439        C  0.60117728  0.43451940  0.88510470     0.06100
F440        F  0.56574866  0.39050339  0.92352829    -0.19800
H441        H  0.48630488  0.31643468  0.92331995     0.15900
F442        F  0.46026120  0.30929808  0.85373372    -0.23500
H443        H  0.53974772  0.38498630  0.85419943     0.17700
C444        C  0.63599635  0.43718457  0.87203237     0.25700
C445        C  0.68011172  0.47671990  0.87222953    -0.12000
C446        C  0.69026416  0.51374597  0.88565566    -0.26000
C447        C  0.65498768  0.51154994  0.89815925     0.36600
C448        C  0.61091180  0.47254109  0.89772729    -0.27700
F449        F  0.62823977  0.40062785  0.86003560    -0.19800
H450        H  0.70701107  0.47742939  0.86269673     0.15900
F451        F  0.66334806  0.54701880  0.91101970    -0.23500
H452        H  0.58447377  0.47154017  0.90768220     0.17700
C453        C  0.09406096  0.87044294  0.86530766    -0.27600
C454        C  0.10609670  0.89165229  0.88487261     0.06100
C455        C  0.07895577  0.86726914  0.90189728     0.25700
C456        C  0.03920986  0.82409858  0.89907963    -0.12000
C457        C  0.02564156  0.80415146  0.87927273    -0.26000
C458        C  0.05467725  0.82720124  0.86249440     0.36500
C459        C  0.14363797  0.94074180  0.88671345     0.06100
F460        F  0.09011155  0.88559801  0.92120588    -0.19800
H461        H  0.01798049  0.80725884  0.91236524     0.15900
F462        F  0.04415048  0.80915396  0.84311954    -0.23500
H463        H  0.11378566  0.88842544  0.85183887     0.17700
C464        C  0.18492532  0.95735078  0.87549840     0.25700
C465        C  0.21536944  0.00479602  0.87382608    -0.12000
C466        C  0.20604825  0.03657650  0.88376199    -0.26000
C467        C  0.16696779  0.02002543  0.89642984     0.36600
C468        C  0.13585303  0.97260399  0.89766449    -0.27700
F469        F  0.19521392  0.92779527  0.86563060    -0.19800
H470        H  0.24578325  0.01680963  0.86431385     0.15900
F471        F  0.15677281  0.04970813  0.90624950    -0.23500
H472        H  0.10420580  0.96110801  0.90619383     0.17700
C473        C  0.59538514  0.12577823  0.90629583    -0.27600
C474        C  0.57413791  0.12210991  0.88711744     0.06100
C475        C  0.59553625  0.11860058  0.86911597     0.25700
C476        C  0.63866183  0.12113133  0.87033186    -0.12000
C477        C  0.66120216  0.12745740  0.88949622    -0.26000
C478        C  0.63813727  0.12804172  0.90757669     0.36500
C479        C  0.53184603  0.12592727  0.88618834     0.06100
F480        F  0.57524600  0.11379613  0.85035193    -0.19800
H481        H  0.65528198  0.12023006  0.85617716     0.15900
F482        F  0.65748587  0.13260183  0.92655728    -0.23500
H483        H  0.57977691  0.12895122  0.92035714     0.17700
C484        C  0.49492051  0.10045863  0.89968491     0.25700
C485        C  0.45826115  0.10924752  0.90083780    -0.12000
C486        C  0.45751284  0.14308957  0.88838366    -0.26000
C487        C  0.49362848  0.16754269  0.87439203     0.36600
C488        C  0.53048486  0.15900698  0.87336508    -0.27700
F489        F  0.49475045  0.06766678  0.91202916    -0.19800
H490        H  0.43070910  0.09003247  0.91168554     0.15900
F491        F  0.49493638  0.20188342  0.86276617    -0.23500
H492        H  0.55910083  0.17986237  0.86325751     0.17700
C493        C  0.02104835  0.19455815  0.86571634    -0.27600
C494        C  0.03551441  0.17652050  0.88183159     0.06100
C495        C  0.00325461  0.14949141  0.89694108     0.25700
C496        C  0.95668339  0.13701853  0.89464905    -0.12000
C497        C  0.94147266  0.15104371  0.87726101    -0.26000
C498        C  0.97455277  0.18170062  0.86328142     0.36500
C499        C  0.08213125  0.18099464  0.88105982     0.06100
F500        F  0.01581399  0.13215194  0.91304725    -0.19800
H501        H  0.93209907  0.11399670  0.90585137     0.15900
F502        F  0.96189402  0.19808946  0.84684078    -0.23500
H503        H  0.04555792  0.21693272  0.85433202     0.17700
C504        C  0.09748235  0.17166657  0.86245009     0.25700
C505        C  0.13977225  0.17305007  0.86159906    -0.12000
C506        C  0.16777952  0.18281345  0.87928322    -0.26000
C507        C  0.15291557  0.19267817  0.89795172     0.36600
C508        C  0.11046829  0.19189922  0.89875813    -0.27700
F509        F  0.07056882  0.15883739  0.84517423    -0.19800
H510        H  0.15004218  0.16526987  0.84698935     0.15900
F511        F  0.17836109  0.20137990  0.91553070    -0.23500
H512        H  0.09953338  0.19933813  0.91326242     0.17700
C513        C  0.89658815  0.06323588  0.14162501    -0.27600
C514        C  0.91081235  0.08847549  0.12332154     0.06100
C515        C  0.88102521  0.07322369  0.10604234     0.25700
C516        C  0.83768593  0.03298044  0.10720115    -0.12000
C517        C  0.82387589  0.00708094  0.12549869    -0.26000
C518        C  0.85391547  0.02306906  0.14277878     0.36500
C519        C  0.95826304  0.12837591  0.12238788     0.06100
F520        F  0.89395800  0.09702281  0.08808901    -0.19800
H521        H  0.81553066  0.02146491  0.09363711     0.15900
F522        F  0.84274584  0.99959334  0.16083221    -0.23500
H523        H  0.91939425  0.07387080  0.15497834     0.17700
C524        C  0.97473661  0.16230336  0.13799158     0.25700
C525        C  0.02169866  0.19486791  0.13936321    -0.12000
C526        C  0.05307153  0.19450873  0.12513064    -0.26000
C527        C  0.03624793  0.16190543  0.10890746     0.36600
C528        C  0.98917903  0.12914024  0.10760830    -0.27700
F529        F  0.94554967  0.16306347  0.15228712    -0.19800
H530        H  0.03368038  0.21992304  0.15183794     0.15900
F531        F  0.06552629  0.15968831  0.09510523    -0.23500
H532        H  0.97729471  0.10274553  0.09572027     0.17700
C533        C  0.45074102  0.62819452  0.12606614    -0.27600
C534        C  0.44433785  0.59619232  0.11046465     0.06100
C535        C  0.47815938  0.60932056  0.09507523     0.25700
C536        C  0.51635102  0.65401643  0.09487699    -0.12000
C537        C  0.52217183  0.68636008  0.11018935    -0.26000
C538        C  0.48936976  0.67269753  0.12606419     0.36500
C539        C  0.40107346  0.55050930  0.10954551     0.06100
F540        F  0.47425275  0.57893879  0.08017643    -0.19800
H541        H  0.54133579  0.66348841  0.08261190     0.15900
F542        F  0.49317634  0.70308721  0.14093521    -0.23500
H543        H  0.42491135  0.61929365  0.13789541     0.17700
C544        C  0.38355064  0.52261732  0.12713692     0.25700
C545        C  0.34143563  0.48093803  0.12613057    -0.12000
C546        C  0.31575062  0.46616458  0.10760239    -0.26000
C547        C  0.33396823  0.49387624  0.08989755     0.36600
C548        C  0.37590881  0.53541272  0.09096913    -0.27700
F549        F  0.40717263  0.53557159  0.14531488    -0.19800
H550        H  0.32850068  0.46070552  0.14003110     0.15900
F551        F  0.31093643  0.48171108  0.07154700    -0.23500
H552        H  0.38814111  0.55653614  0.07727993     0.17700
C553        C  0.10903390  0.49315886  0.10133117    -0.27600
C554        C  0.13485236  0.52999555  0.11508644     0.06100
C555        C  0.16491813  0.52596761  0.12923448     0.25700
C556        C  0.17026269  0.48698043  0.12895822    -0.12000
C557        C  0.14649490  0.45148747  0.11438347    -0.26000
C558        C  0.11502346  0.45457083  0.10080514     0.36500
C559        C  0.13294641  0.57365074  0.11362508     0.06100
F560        F  0.19152940  0.56100485  0.14244960    -0.19800
H561        H  0.19514002  0.48585000  0.13941068     0.15900
F562        F  0.09055087  0.42063929  0.08676678    -0.23500
H563        H  0.08485354  0.49471176  0.09059567     0.17700
C564        C  0.13662684  0.59465758  0.09438722     0.25700
C565        C  0.13985720  0.63793460  0.09323811    -0.12000
C566        C  0.13966285  0.66174394  0.11116309    -0.26000
C567        C  0.13348894  0.63961401  0.13035494     0.36600
C568        C  0.13020226  0.59615458  0.13148856    -0.27700
F569        F  0.13989676  0.57473256  0.07668164    -0.19800
H570        H  0.14423862  0.65355006  0.07819750     0.15900
F571        F  0.13244182  0.66051806  0.14815863    -0.23500
H572        H  0.12637582  0.58041493  0.14646315     0.17700
C573        C  0.21184562  0.11180840  0.10530669    -0.27600
C574        C  0.20179011  0.08430780  0.12308320     0.06100
C575        C  0.19644638  0.10198181  0.14191093     0.25700
C576        C  0.19972340  0.14512478  0.14283200    -0.12000
C577        C  0.20756146  0.17198348  0.12501787    -0.26000
C578        C  0.21462032  0.15519725  0.10618637     0.36500
C579        C  0.19297924  0.03595328  0.12204317     0.06100
F580        F  0.18490358  0.07627634  0.15933178    -0.19800
H581        H  0.19411696  0.15659123  0.15762115     0.15900
F582        F  0.22233282  0.17957865  0.08852041    -0.23500
H583        H  0.21651686  0.09921998  0.09062000     0.17700
C584        C  0.16181941  0.00442539  0.10741078     0.25700
C585        C  0.14760670  0.95742678  0.10874552    -0.12000
C586        C  0.16343390  0.94051730  0.12484633    -0.26000
C587        C  0.19636230  0.97233615  0.13888950     0.36600
C588        C  0.21129685  0.01950191  0.13729226    -0.27700
F589        F  0.14237308  0.01834798  0.09270900    -0.19800
H590        H  0.12207254  0.93385702  0.09775973     0.15900
F591        F  0.21341534  0.95790421  0.15444405    -0.23500
H592        H  0.23602782  0.04310498  0.14852319     0.17700
C593        C  0.25711362  0.29558923  0.01420974    -0.27600
C594        C  0.24514138  0.24917817  0.01223488     0.06100
C595        C  0.21872097  0.21793196  0.02773289     0.25700
C596        C  0.20418945  0.23303792  0.04475386    -0.12000
C597        C  0.21621753  0.27963371  0.04677327    -0.26000
C598        C  0.24297699  0.31082563  0.03123822     0.36500
C599        C  0.26058182  0.23424017  0.99389070     0.06100
F600        F  0.20816158  0.17317727  0.02675187    -0.19800
H601        H  0.18406516  0.20828146  0.05651393     0.15900
F602        F  0.25589524  0.35620117  0.03243788    -0.23500
H603        H  0.27732467  0.32018264  0.00240094     0.17700
C604        C  0.22894671  0.19691725  0.98160676     0.25700
C605        C  0.24360947  0.18545893  0.96351731    -0.12000
C606        C  0.29000752  0.21095198  0.95733036    -0.26000
C607        C  0.32172503  0.24807503  0.96979289     0.36600
C608        C  0.30700324  0.25944129  0.98785701    -0.27700
F609        F  0.18350268  0.17274607  0.98660008    -0.19800
H610        H  0.21843568  0.15681741  0.95422918     0.15900
F611        F  0.36668872  0.27437313  0.96429805    -0.23500
H612        H  0.33188890  0.28841191  0.99708608     0.17700
C613        C  0.78183441  0.14668254  0.72748168    -0.27600
C614        C  0.79427479  0.18844355  0.73759702     0.06100
C615        C  0.81315395  0.22930973  0.72600299     0.25700
C616        C  0.82106987  0.22840083  0.70477518    -0.12000
C617        C  0.81139884  0.18694510  0.69501231    -0.26000
C618        C  0.79062619  0.14588684  0.70647854     0.36500
C619        C  0.79313649  0.18921380  0.76049169     0.06100
F620        F  0.82547921  0.27021264  0.73537741    -0.19800
H621        H  0.83747561  0.26045174  0.69628951     0.15900
F622        F  0.78049221  0.10512945  0.69751507    -0.23500
H623        H  0.76773723  0.11491725  0.73614767     0.17700
C624        C  0.75198765  0.16143893  0.77131152     0.25700
C625        C  0.75322093  0.15548847  0.79270845    -0.12000
C626        C  0.79562176  0.17613870  0.80343763    -0.26000
C627        C  0.83636080  0.20565113  0.79276562     0.36600
C628        C  0.83497449  0.21251547  0.77155362    -0.27700
F629        F  0.71105150  0.13826785  0.76099964    -0.19800
H630        H  0.72157685  0.13203687  0.80058504     0.15900
F631        F  0.87789778  0.22583232  0.80269661    -0.23500
H632        H  0.86710982  0.23353804  0.76349568     0.17700
C633        C  0.03486221  0.31820402  0.48430203    -0.27600
C634        C  0.01842104  0.27343852  0.49184353     0.06100
C635        C  0.02960436  0.24367240  0.48118875     0.25700
C636        C  0.05572084  0.25818260  0.46304236    -0.12000
C637        C  0.07216299  0.30302035  0.45538495    -0.26000
C638        C  0.06181926  0.33312737  0.46643163     0.36500
C639        C  0.98776229  0.25742070  0.51018261     0.06100
F640        F  0.01405428  0.20007362  0.48798573    -0.19800
H641        H  0.06315937  0.23426146  0.45497315     0.15900
F642        F  0.07642789  0.37656771  0.45965189    -0.23500
H643        H  0.02658308  0.34164207  0.49226973     0.17700
C644        C  0.00074915  0.24376494  0.52834902     0.25700
C645        C  0.97115707  0.22856581  0.54539871    -0.12000
C646        C  0.92804740  0.22678004  0.54477412    -0.26000
C647        C  0.91515207  0.24037482  0.52648597     0.36600
C648        C  0.94484107  0.25567784  0.50947931    -0.27700
F649        F  0.04252815  0.24622168  0.52979203    -0.19800
H650        H  0.98238498  0.21886734  0.55926536     0.15900
F651        F  0.87348517  0.23805960  0.52482625    -0.23500
H652        H  0.93406120  0.26573728  0.49556994     0.17700
C653        C  0.23575461  0.40951699  0.22672390    -0.27600
C654        C  0.19531188  0.38672275  0.23851453     0.06100
C655        C  0.15289304  0.35819382  0.22854573     0.25700
C656        C  0.15136920  0.35047752  0.20732795    -0.12000
C657        C  0.19195539  0.37130621  0.19559243    -0.26000
C658        C  0.23409370  0.40228086  0.20529263     0.36500
C659        C  0.19734557  0.38764755  0.26132214     0.06100
F660        F  0.11344695  0.33487487  0.23959021    -0.19800
H661        H  0.11865141  0.32607353  0.20018594     0.15900
F662        F  0.27400577  0.42222000  0.19443522    -0.23500
H663        H  0.26876997  0.43131158  0.23425339     0.17700
C664        C  0.21444975  0.36242518  0.27174340     0.25700
C665        C  0.20733490  0.35465054  0.29294357    -0.12000
C666        C  0.18406516  0.37280625  0.30415326    -0.26000
C667        C  0.16974213  0.40064396  0.29397974     0.36600
C668        C  0.17580906  0.40744299  0.27263614    -0.27700
F669        F  0.23484776  0.34238178  0.26113995    -0.19800
H670        H  0.21831428  0.33280758  0.30048672     0.15900
F671        F  0.14628672  0.41777658  0.30431041    -0.23500
H672        H  0.16185384  0.42639552  0.26475543     0.17700
C673        C  0.35959179  0.14645136  0.77305726    -0.27600
C674        C  0.38559577  0.19046786  0.76440326     0.06100
C675        C  0.40406061  0.22945122  0.77747250     0.25700
C676        C  0.39547738  0.22420694  0.79874244    -0.12000
C677        C  0.36756360  0.18019001  0.80710820    -0.26000
C678        C  0.35050845  0.14128722  0.79414327     0.36500
C679        C  0.38927906  0.19467055  0.74161496     0.06100
F680        F  0.42925094  0.27249992  0.76961019    -0.19800
H681        H  0.40827502  0.25461807  0.80846185     0.15900
F682        F  0.32362069  0.09825816  0.80179254    -0.23500
H683        H  0.34435907  0.11596866  0.76329697     0.17700
C684        C  0.40162297  0.16687340  0.73000750     0.25700
C685        C  0.39577252  0.16367904  0.70856450    -0.12000
C686        C  0.37682854  0.18748765  0.69846677    -0.26000
C687        C  0.36747868  0.21770529  0.70979430     0.36600
C688        C  0.37401502  0.22151631  0.73121547    -0.27700
F689        F  0.41682861  0.14078749  0.73955004    -0.19800
H690        H  0.40269106  0.13988095  0.70005304     0.15900
F691        F  0.34973555  0.24159941  0.70023954    -0.23500
H692        H  0.36400374  0.24291310  0.73981063     0.17700
C693        C  0.52920899  0.13912500  0.63735081    -0.27600
C694        C  0.55146218  0.13646949  0.61946816     0.06100
C695        C  0.53082626  0.13362695  0.60012724     0.25700
C696        C  0.48996224  0.13514928  0.59867795    -0.12000
C697        C  0.46886992  0.14034813  0.61637765    -0.26000
C698        C  0.48826140  0.14109078  0.63589269     0.36500
C699        C  0.59768479  0.14013310  0.62055833     0.06100
F700        F  0.55182636  0.13264862  0.58241665    -0.19800
H701        H  0.47597340  0.13439263  0.58345995     0.15900
F702        F  0.46936336  0.14635488  0.65346232    -0.23500
H703        H  0.54423330  0.14094585  0.65243106     0.17700
C704        C  0.63444463  0.17644759  0.63153342     0.25700
C705        C  0.67947213  0.18409239  0.62956164    -0.12000
C706        C  0.68872034  0.15628340  0.61639656    -0.26000
C707        C  0.65179025  0.11852798  0.60637485     0.36600
C708        C  0.60665278  0.11029632  0.60864394    -0.27700
F709        F  0.62750823  0.20645759  0.64300028    -0.19800
H710        H  0.70756238  0.21332667  0.63747409     0.15900
F711        F  0.65940188  0.08981494  0.59430601    -0.23500
H712        H  0.57875747  0.08143320  0.60047381     0.17700
C713        C  0.08542850  0.19727130  0.63819965    -0.27600
C714        C  0.10537687  0.19970203  0.61891759     0.06100
C715        C  0.08449671  0.20589783  0.60116414     0.25700
C716        C  0.04358565  0.20796460  0.60279539    -0.12000
C717        C  0.02275359  0.20354867  0.62210168    -0.26000
C718        C  0.04501888  0.19948071  0.63986122     0.36500
C719        C  0.14538132  0.19170725  0.61782967     0.06100
F720        F  0.10324071  0.20935609  0.58227322    -0.19800
H721        H  0.02732665  0.21125245  0.58889655     0.15900
F722        F  0.02725932  0.19654729  0.65895700    -0.23500
H723        H  0.10017261  0.19176820  0.65209984     0.17700
C724        C  0.18158437  0.21223886  0.63245297     0.25700
C725        C  0.21304805  0.19651663  0.63468636    -0.12000
C726        C  0.20993483  0.16084758  0.62208134    -0.26000
C727        C  0.17648971  0.14329296  0.60614956     0.36600
C728        C  0.14424483  0.15833550  0.60421718    -0.27700
F729        F  0.18545184  0.24633056  0.64517212    -0.19800
H730        H  0.23919981  0.21144668  0.64672482     0.15900
F731        F  0.17265191  0.10918967  0.59345488    -0.23500
H732        H  0.11663205  0.14172512  0.59291360     0.17700
C733        C  0.22790247  0.01045745  0.52681103    -0.27600
C734        C  0.25992642  0.01392993  0.51199473     0.06100
C735        C  0.30709259  0.04526121  0.51531318     0.25700
C736        C  0.32202453  0.07202885  0.53334819    -0.12000
C737        C  0.29029169  0.06806733  0.54855064    -0.26000
C738        C  0.24276649  0.03698674  0.54498592     0.36500
C739        C  0.24439016  0.98388484  0.49338986     0.06100
F740        F  0.33873661  0.05009419  0.50101530    -0.19800
H741        H  0.35868284  0.09571985  0.53544180     0.15900
F742        F  0.21059235  0.03157580  0.55910682    -0.23500
H743        H  0.19138752  0.98640466  0.52447846     0.17700
C744        C  0.25679952  0.94983227  0.49072109     0.25700
C745        C  0.24369780  0.92261773  0.47279167    -0.12000
C746        C  0.21812533  0.92890787  0.45703222    -0.26000
C747        C  0.20509725  0.96275454  0.45997091     0.36600
C748        C  0.21799314  0.98971326  0.47802968    -0.27700
F749        F  0.28153237  0.94283957  0.50554825    -0.19800
H750        H  0.25411317  0.89686932  0.47118160     0.15900
F751        F  0.18047255  0.97041767  0.44534779    -0.23500
H752        H  0.20814724  0.01585424  0.47986194     0.17700
C753        C  0.20669455  0.09519990  0.36480058    -0.27600
C754        C  0.20108573  0.11093229  0.38409950     0.06100
C755        C  0.20247707  0.08755996  0.40195361     0.25700
C756        C  0.20630599  0.04768573  0.40027378    -0.12000
C757        C  0.20920561  0.03072708  0.38080919    -0.26000
C758        C  0.21145009  0.05621087  0.36316371     0.36500
C759        C  0.19021604  0.14915644  0.38502431     0.06100
F760        F  0.19948171  0.10284141  0.42098511    -0.19800
H761        H  0.20510465  0.02909785  0.41410750     0.15900
F762        F  0.21708064  0.04273612  0.34412872    -0.23500
H763        H  0.20542286  0.11189283  0.35072561     0.17700
C764        C  0.21255244  0.18764674  0.37194333     0.25700
C765        C  0.19673244  0.21911644  0.37032447    -0.12000
C766        C  0.15891011  0.21359734  0.38190581    -0.26000
C767        C  0.13841576  0.17702019  0.39599103     0.36600
C768        C  0.15372081  0.14495186  0.39736853    -0.27700
F769        F  0.24900903  0.19435450  0.36027114    -0.19800
H770        H  0.21339647  0.24733831  0.35953767     0.15900
F771        F  0.10132045  0.17013363  0.40722359    -0.23500
H772        H  0.13520287  0.11536859  0.40727460     0.17700
C773        C  0.16835694  0.63601040  0.36815025    -0.27600
C774        C  0.13684118  0.60145590  0.38136489     0.06100
C775        C  0.11158253  0.61281683  0.39526052     0.25700
C776        C  0.12031546  0.65820951  0.39691488    -0.12000
C777        C  0.15316854  0.69299098  0.38430620    -0.26000
C778        C  0.17619746  0.68119547  0.36944521     0.36500
C779        C  0.13495882  0.55590773  0.38252519     0.06100
F780        F  0.07905908  0.58021062  0.40760735    -0.19800
H781        H  0.10176294  0.66634813  0.40828817     0.15900
F782        F  0.20885784  0.71403666  0.35721888    -0.23500
H783        H  0.18895474  0.62877397  0.35757350     0.17700
C784        C  0.13551041  0.53157969  0.36479067     0.25700
C785        C  0.13909457  0.49156995  0.36669343    -0.12000
C786        C  0.14212436  0.47500140  0.38627129    -0.26000
C787        C  0.13931511  0.49830873  0.40389361     0.36600
C788        C  0.13630765  0.53822185  0.40196851    -0.27700
F789        F  0.13308360  0.54664480  0.34564614    -0.19800
H790        H  0.14105907  0.47448531  0.35283277     0.15900
F791        F  0.14075066  0.48342889  0.42320418    -0.23500
H792        H  0.13693253  0.55639909  0.41592240     0.17700
C793        C  0.18279937  0.76842346  0.27772002    -0.27600
C794        C  0.19702943  0.80213987  0.26221280     0.06100
C795        C  0.21474982  0.84845666  0.26804448     0.25700
C796        C  0.21742140  0.86064364  0.28879733    -0.12000
C797        C  0.20239087  0.82716150  0.30433577    -0.26000
C798        C  0.18580787  0.78083579  0.29870295     0.36500
C799        C  0.18909283  0.78945031  0.23994495     0.06100
F800        F  0.22645145  0.88166701  0.25357471    -0.19800
H801        H  0.22966640  0.89643611  0.29272892     0.15900
F802        F  0.16963180  0.74741868  0.31326327    -0.23500
H803        H  0.16826676  0.73243182  0.27352363     0.17700
C804        C  0.22513409  0.81141927  0.22559192     0.25700
C805        C  0.21536839  0.80804579  0.20436352    -0.12000
C806        C  0.16954757  0.78318160  0.19721387    -0.26000
C807        C  0.13398633  0.75826493  0.21141390     0.36600
C808        C  0.14379741  0.76109124  0.23258388    -0.27700
F809        F  0.26938988  0.83861617  0.23221317    -0.19800
H810        H  0.24312136  0.82778454  0.19368084     0.15900
F811        F  0.08932911  0.73361095  0.20487051    -0.23500
H812        H  0.11550942  0.74400926  0.24331739     0.17700
C813        C  0.77138477  0.58383467  0.72752972    -0.27600
C814        C  0.81252357  0.60497702  0.73920625     0.06100
C815        C  0.85478159  0.63207647  0.72918041     0.25700
C816        C  0.85527660  0.64130811  0.70812328    -0.12000
C817        C  0.81381365  0.62270515  0.69669152    -0.26000
C818        C  0.77202783  0.59205227  0.70630736     0.36500
C819        C  0.81074697  0.60568218  0.76197787     0.06100
F820        F  0.89507475  0.65285817  0.74010035    -0.19800
H821        H  0.88783821  0.66501085  0.70094877     0.15900
F822        F  0.73146750  0.57377226  0.69566446    -0.23500
H823        H  0.73853690  0.56306662  0.73509325     0.17700
C824        C  0.79465561  0.63256424  0.77163311     0.25700
C825        C  0.79862819  0.63900270  0.79299915    -0.12000
C826        C  0.81802985  0.61818638  0.80515665    -0.26000
C827        C  0.83223655  0.58954745  0.79562417     0.36600
C828        C  0.82908927  0.58381289  0.77410095    -0.27700
F829        F  0.77776450  0.65494548  0.76022177    -0.19800
H830        H  0.78793581  0.66158735  0.80001562     0.15900
F831        F  0.85233383  0.57007456  0.80691436    -0.23500
H832        H  0.84219562  0.56349766  0.76682671     0.17700
C833        C  0.60686234  0.46238833  0.59721106    -0.27600
C834        C  0.58751001  0.44538023  0.61663149     0.06100
C835        C  0.61081025  0.47175458  0.63429613     0.25700
C836        C  0.65319929  0.51309926  0.63240620    -0.12000
C837        C  0.67313308  0.52922236  0.61290007    -0.26000
C838        C  0.64843312  0.50381226  0.59526964     0.36500
C839        C  0.54464013  0.39913785  0.61794434     0.06100
F840        F  0.59290946  0.45754414  0.65338551    -0.19800
H841        H  0.67107787  0.53171527  0.64629427     0.15900
F842        F  0.66498865  0.51793233  0.57598168    -0.23500
H843        H  0.59059743  0.44271246  0.58332364     0.17700
C844        C  0.50846358  0.38570994  0.60338263     0.25700
C845        C  0.47193222  0.34018404  0.60251042    -0.12000
C846        C  0.46954203  0.30722195  0.61652709    -0.26000
C847        C  0.50403529  0.32100652  0.63190334     0.36600
C848        C  0.54141388  0.36636420  0.63242666    -0.27700
F849        F  0.50851043  0.41652240  0.58979182    -0.19800
H850        H  0.44542683  0.33059078  0.59074160     0.15900
F851        F  0.50318846  0.28999056  0.64561906    -0.23500
H852        H  0.56887788  0.37517567  0.64360025     0.17700
C853        C  0.01392274  0.85804596  0.60939698    -0.27600
C854        C  0.04527745  0.85569177  0.62325806     0.06100
C855        C  0.02893126  0.81823385  0.63691250     0.25700
C856        C  0.98190912  0.78550810  0.63740658    -0.12000
C857        C  0.95033084  0.78906473  0.62417475    -0.26000
C858        C  0.96697206  0.82487298  0.60966696     0.36500
C859        C  0.09351025  0.89473259  0.62475765     0.06100
F860        F  0.05816326  0.81379404  0.65014159    -0.19800
H861        H  0.96994779  0.75797166  0.64859089     0.15900
F862        F  0.93754934  0.82992231  0.59680433    -0.23500
H863        H  0.02528873  0.88698312  0.59903700     0.17700
C864        C  0.11922876  0.91619874  0.60697222     0.25700
C865        C  0.16172419  0.95712955  0.60866245    -0.12000
C866        C  0.17937182  0.97722146  0.62809215    -0.26000
C867        C  0.15529798  0.95381594  0.64591472     0.36600
C868        C  0.11263071  0.91340731  0.64420502    -0.27700
F869        F  0.10283012  0.89817415  0.58793899    -0.19800
H870        H  0.17986477  0.97405623  0.59470669     0.15900
F871        F  0.17240929  0.97049126  0.66504835    -0.23500
H872        H  0.09362407  0.89790975  0.65817288     0.17700
C873        C  0.82841379  0.46245662  0.63216209    -0.27600
C874        C  0.85408434  0.45586500  0.61674015     0.06100
C875        C  0.87565904  0.49006748  0.60157401     0.25700
C876        C  0.86832030  0.52763548  0.60083387    -0.12000
C877        C  0.84071496  0.53293113  0.61557742    -0.26000
C878        C  0.82228471  0.50094975  0.63179336     0.36500
C879        C  0.85431543  0.41152071  0.61511367     0.06100
F880        F  0.90316695  0.48671725  0.58714500    -0.19800
H881        H  0.88374897  0.55235804  0.58848576     0.15900
F882        F  0.79576018  0.50512168  0.64649551    -0.23500
H883        H  0.81106945  0.43667016  0.64393123     0.17700
C884        C  0.86004654  0.38950396  0.63246738     0.25700
C885        C  0.85742863  0.34649082  0.63035291    -0.12000
C886        C  0.84909699  0.32456746  0.61094070    -0.26000
C887        C  0.84452102  0.34736716  0.59357705     0.36600
C888        C  0.84653987  0.38977159  0.59576686    -0.27700
F889        F  0.86816804  0.40941389  0.65145277    -0.19800
H890        H  0.86088996  0.32989376  0.64403187     0.15900
F891        F  0.83699605  0.32845878  0.57438503    -0.23500
H892        H  0.84072523  0.40509126  0.58220317     0.17700
C893        C  0.79583611  0.88083783  0.60265455    -0.27600
C894        C  0.81410419  0.91395410  0.61849845     0.06100
C895        C  0.82884293  0.90344974  0.63698401     0.25700
C896        C  0.82569808  0.86061941  0.63952669    -0.12000
C897        C  0.80764729  0.82708840  0.62371885    -0.26000
C898        C  0.79225882  0.83755951  0.60523003     0.36500
C899        C  0.81868373  0.95991115  0.61602171     0.06100
F900        F  0.84756048  0.93526421  0.65240816    -0.19800
H901        H  0.83810076  0.85406221  0.65389128     0.15900
F902        F  0.77434241  0.80644210  0.58953490    -0.23500
H903        H  0.78427474  0.88851927  0.58832268     0.17700
C904        C  0.85099580  0.99218922  0.60230580     0.25700
C905        C  0.86225589  0.03849003  0.60339599    -0.12000
C906        C  0.84139838  0.05295965  0.61817875    -0.26000
C907        C  0.80590159  0.01961772  0.63047909     0.36600
C908        C  0.79498673  0.97359715  0.62948012    -0.34900
F909        F  0.87422774  0.97969588  0.58905705    -0.19800
H910        H  0.88948744  0.06346019  0.59367100     0.15900
F911        F  0.78302166  0.03181963  0.64407196    -0.23500
H912        H  0.76947270  0.94889763  0.63992076     0.17700
C913        C  0.62331789  0.84267302  0.27045115    -0.27600
C914        C  0.60026544  0.79905391  0.26095505     0.06100
C915        C  0.58234825  0.75955704  0.27346938     0.25700
C916        C  0.58965145  0.76387307  0.29496827    -0.12000
C917        C  0.61594683  0.80758340  0.30422195    -0.26000
C918        C  0.63151205  0.84700345  0.29178924     0.36500
C919        C  0.60156934  0.79573771  0.23805490     0.06100
F920        F  0.55971280  0.71686793  0.26477614    -0.19800
H921        H  0.57779617  0.73304007  0.30414247     0.15900
F922        F  0.65684006  0.88984479  0.30015504    -0.23500
H923        H  0.63772290  0.87353270  0.26113103     0.17700
C924        C  0.58162806  0.81473632  0.22496517     0.25700
C925        C  0.58993127  0.81797934  0.20359123    -0.12000
C926        C  0.61942001  0.80367360  0.19504852    -0.26000
C927        C  0.63787680  0.78314843  0.20812025     0.36600
C928        C  0.62851839  0.77876081  0.22928743    -0.27700
F929        F  0.55565747  0.83175927  0.23297558    -0.19800
H930        H  0.57587235  0.83451433  0.19395443     0.15900
F931        F  0.66667665  0.76905239  0.20055509    -0.23500
H932        H  0.64469206  0.76454366  0.23908191     0.17700
C933        C  0.77818007  0.78797557  0.47575773    -0.27600
C934        C  0.74656314  0.75630343  0.48990306     0.06100
C935        C  0.69902501  0.73748675  0.48597330     0.25700
C936        C  0.68344135  0.74896238  0.46808540    -0.12000
C937        C  0.71467870  0.77954117  0.45349201    -0.26000
C938        C  0.76256737  0.79939095  0.45766080     0.36500
C939        C  0.76243343  0.74156572  0.50848480     0.06100
F940        F  0.66741606  0.70802356  0.49959347    -0.19800
H941        H  0.64649953  0.73337031  0.46562471     0.15900
F942        F  0.79436940  0.82939141  0.44424789    -0.23500
H943        H  0.81499201  0.80305615  0.47850136     0.17700
C944        C  0.74657133  0.69452750  0.51186011     0.25700
C945        C  0.75752438  0.67985058  0.53017004    -0.12000
C946        C  0.78469178  0.71157634  0.54569129    -0.26000
C947        C  0.80216409  0.75905013  0.54194505     0.36600
C948        C  0.79116355  0.77372237  0.52349592    -0.27700
F949        F  0.72013152  0.66255728  0.49739926    -0.19800
H950        H  0.74402602  0.64324557  0.53226999     0.15900
F951        F  0.82913556  0.79134299  0.55618378    -0.23500
H952        H  0.80392773  0.81015954  0.52120492     0.17700
C953        C  0.81681757  0.03192283  0.37030691    -0.27600
C954        C  0.85512669  0.04569758  0.38348079     0.06100
C955        C  0.85711507  0.01259181  0.39610892     0.25700
C956        C  0.82302523  0.96603858  0.39435450    -0.12000
C957        C  0.78676217  0.95181454  0.37988587    -0.26000
C958        C  0.78302576  0.98546970  0.36842026     0.36500
C959        C  0.89538937  0.09294125  0.38183356     0.06100
F960        F  0.89383592  0.02461910  0.40889470    -0.19800
H961        H  0.82670112  0.94078066  0.40334180     0.15900
F962        F  0.74753343  0.97333879  0.35487729    -0.23500
H963        H  0.81424190  0.05704244  0.36072311     0.17700
C964        C  0.91547902  0.10931195  0.36246328     0.25700
C965        C  0.95533086  0.15218303  0.36074635    -0.12000
C966        C  0.97658950  0.17978785  0.37827231    -0.26000
C967        C  0.95582035  0.16405362  0.39767517     0.36600
C968        C  0.91558304  0.12084102  0.39938711    -0.27700
F969        F  0.89801379  0.08271733  0.34525189    -0.19800
H970        H  0.97033628  0.16317173  0.34560423     0.15900
F971        F  0.97537349  0.18925463  0.41506336    -0.23500
H972        H  0.90059052  0.10879669  0.41445191     0.17700
C973        C  0.36951825  0.53312257  0.36589064    -0.27600
C974        C  0.40144684  0.53885546  0.38145723     0.06100
C975        C  0.38747553  0.50618241  0.39735067     0.25700
C976        C  0.34143015  0.47098002  0.39867455    -0.12000
C977        C  0.30856680  0.46707391  0.38396174    -0.26000
C978        C  0.32343958  0.49734342  0.36701095     0.36500
C979        C  0.44575401  0.58297520  0.38342728     0.06100
F980        F  0.41803755  0.50976562  0.41217978    -0.19800
H981        H  0.33117777  0.44746045  0.41157159     0.15900
F982        F  0.29286408  0.49459966  0.35236998    -0.23500
H983        H  0.37949863  0.55813384  0.35361115     0.17700
C984        C  0.47926017  0.60004039  0.36781783     0.25700
C985        C  0.51952455  0.64338659  0.37016359    -0.12000
C986        C  0.52667235  0.67042516  0.38801913    -0.26000
C987        C  0.49240351  0.65292233  0.40342952     0.36600
C988        C  0.45294461  0.60983126  0.40113536    -0.27700
F989        F  0.47310097  0.57485211  0.35042469    -0.19800
H990        H  0.54476790  0.65601857  0.35792195     0.15900
F991        F  0.49555168  0.67817540  0.42042883    -0.23500
H992        H  0.42694027  0.59790297  0.41306694     0.17700
C993        C  0.88523451  0.80141110  0.39083271    -0.27600
C994        C  0.91757309  0.82434787  0.37523058     0.06100
C995        C  0.90517245  0.84197063  0.35829576     0.25700
C996        C  0.86109926  0.83673240  0.35698689    -0.12000
C997        C  0.82828782  0.81390200  0.37256639    -0.26000
C998        C  0.84081616  0.79595789  0.38953609     0.36500
C999        C  0.96455835  0.83063275  0.37653144     0.06100
F1000       F  0.93629043  0.86559506  0.34330714    -0.19800
H1001       H  0.85309308  0.85149470  0.34383654     0.15900
F1002       F  0.81054429  0.77353777  0.40494858    -0.23500
H1003       H  0.89442783  0.78764511  0.40399219     0.17700
C1004       C  0.99552076  0.85813307  0.39213895     0.25700
C1005       C  0.04163180  0.86853474  0.39168950    -0.12000
C1006       C  0.05769517  0.85220885  0.37551771    -0.26000
C1007       C  0.02591113  0.82277164  0.36045836     0.36600
C1008       C  0.97981854  0.81224514  0.36100678    -0.27700
F1009       F  0.98196921  0.87746830  0.40698463    -0.19800
H1010       H  0.06533027  0.89150014  0.40338976     0.15900
F1011       F  0.03950233  0.80507315  0.34490176    -0.23500
H1012       H  0.95618397  0.79074495  0.34893791     0.17700
C1013       C  0.45436824  0.81925789  0.37417153    -0.27600
C1014       C  0.45171893  0.84908562  0.38868556     0.06100
C1015       C  0.48770825  0.87163164  0.40325837     0.25700
C1016       C  0.52479006  0.86327670  0.40364698    -0.12000
C1017       C  0.52701677  0.83278818  0.38937982    -0.26000
C1018       C  0.49163043  0.81113590  0.37445934     0.36500
C1019       C  0.40924694  0.85268603  0.38989777     0.06100
F1020       F  0.48677048  0.90142981  0.41724664    -0.19800
H1021       H  0.55172522  0.88048060  0.41521194     0.15900
F1022       F  0.49159557  0.78003311  0.36094776    -0.23500
H1023       H  0.42652938  0.80068464  0.36313772     0.17700
C1024       C  0.38990270  0.86147617  0.37234293     0.25700
C1025       C  0.34741651  0.86035883  0.37362205    -0.12000
C1026       C  0.32329654  0.85016424  0.39238900    -0.26000
C1027       C  0.34367176  0.84263830  0.41004945     0.36600
C1028       C  0.38599645  0.84395283  0.40871601    -0.27700
F1029       F  0.41188275  0.87074150  0.35394146    -0.19800
H1030       H  0.33284805  0.86624909  0.35976333     0.15900
F1031       F  0.32214990  0.83221841  0.42858098    -0.23500
H1032       H  0.39983311  0.83631963  0.42235900     0.17700
loop_ 
_geom_bond_atom_site_label_1 
_geom_bond_atom_site_label_2 
_geom_bond_distance 
_geom_bond_site_symmetry_2 
_ccdc_geom_bond_type 
O1           Ni7   1.932       .  S
O1           C22   1.271       .  A
O2          Ni25   1.920       .  S
O2           C11   1.270       .  A
O3           Ni7   1.907       .  S
O3          Ni25   1.915       .  S
O3          Ni19   1.910       .  S
O3           H26   0.966       .  S
C4           O21   1.279       .  A
C4           O13   1.279       .  A
C4         C1017   1.479       .  S
O5          Ni24   1.940       .  S
O5           C11   1.276       .  A
O6          Ni24   1.907       .  S
O6            C8   1.271       .  A
Ni7          O10   1.932       .  S
Ni7          O12   1.905       .  S
C8           O18   1.276       .  A
C8          C986   1.492       .  S
O9          Ni25   1.910       .  S
O9           C15   1.275       .  A
O10          C15   1.278       .  A
C11         C937   1.499       .  S
O12          C14   1.268       .  A
O13         Ni24   1.926       .  S
C14          O20   1.272       .  A
C14         C957   1.480       .  S
C15         C997   1.487       .  S
H16          O17   0.966       .  S
O17         Ni25   1.910       .  S
O17         Ni19   1.911       .  S
O17         Ni24   1.893       .  S
O18         Ni19   1.938       .  S
Ni19         O23   1.928       .  S
Ni19         O21   1.924       .  S
O20         Ni25   1.939       .  S
C22          O23   1.273       .  A
C22         C917   1.486       .  S
O27         Ni33   1.930       .  S
O27          C48   1.271       .  A
O28         Ni51   1.917       .  S
O28          C37   1.269       .  A
O29         Ni33   1.912       .  S
O29         Ni51   1.918       .  S
O29         Ni45   1.914       .  S
O29          H52   0.966       .  S
C30          O47   1.274       .  A
C30          O39   1.278       .  A
C30         C877   1.480       .  S
O31         Ni50   1.943       .  S
O31          C37   1.276       .  A
O32         Ni50   1.910       .  S
O32          C34   1.271       .  A
Ni33         O36   1.937       .  S
Ni33         O38   1.897       .  S
C34          O44   1.275       .  A
C34         C837   1.495       .  S
O35         Ni51   1.906       .  S
O35          C41   1.271       .  A
O36          C41   1.277       .  A
C37         C946   1.499       .  S
O38          C40   1.266       .  A
O39         Ni50   1.928       .  S
C40          O46   1.274       .  A
C40         C857   1.476       .  S
C41         C897   1.488       .  S
H42          O43   0.966       .  S
O43         Ni51   1.906       .  S
O43         Ni45   1.909       .  S
O43         Ni50   1.900       .  S
O44         Ni45   1.935       .  S
Ni45         O49   1.912       .  S
Ni45         O47   1.916       .  S
O46         Ni51   1.943       .  S
C48          O49   1.268       .  A
C48         C817   1.475       .  S
O53         Ni59   1.916       .  S
O53          C74   1.270       .  A
O54         Ni77   1.908       .  S
O54          C63   1.268       .  A
O55         Ni59   1.909       .  S
O55         Ni77   1.916       .  S
O55         Ni71   1.927       .  S
O55          H78   0.966       .  S
C56          O73   1.276       .  A
C56          O65   1.279       .  A
C56         C777   1.482       .  S
O57         Ni76   1.945       .  S
O57          C63   1.276       .  A
O58         Ni76   1.905       .  S
O58          C60   1.270       .  A
Ni59         O62   1.926       .  S
Ni59         O64   1.904       .  S
C60          O70   1.276       .  A
C60        C1026   1.490       .  S
O61         Ni77   1.920       .  S
O61          C67   1.272       .  A
O62          C67   1.272       .  A
C63         C746   1.494       .  S
O64          C66   1.270       .  A
O65         Ni76   1.932       .  S
C66          O72   1.276       .  A
C66        C1006   1.481       .  S
C67         C757   1.485   1_565  S
H68          O69   0.966       .  S
O69         Ni77   1.909       .  S
O69         Ni71   1.908       .  S
O69         Ni76   1.903       .  S
O70         Ni71   1.933       .  S
Ni71         O75   1.923       .  S
Ni71         O73   1.921       .  S
O72         Ni77   1.943       .  S
C74          O75   1.273       .  A
C74         C797   1.481       .  S
O79         Ni85   1.933       .  S
O79         C100   1.271       .  A
O80        Ni103   1.908       .  S
O80          C89   1.267       .  A
O81         Ni85   1.903       .  S
O81        Ni103   1.907       .  S
O81         Ni97   1.905       .  S
O81         H104   0.966       .  S
C82          O99   1.277       .  A
C82          O91   1.279       .  A
C82         C846   1.482       .  S
O83        Ni102   1.940       .  S
O83          C89   1.275       .  A
O84        Ni102   1.908       .  S
O84          C86   1.271       .  A
Ni85         O88   1.933       .  S
Ni85         O90   1.904       .  S
C86          O96   1.271       .  A
C86         C697   1.484       .  S
O87        Ni103   1.906       .  S
O87          C93   1.274       .  A
O88          C93   1.278       .  A
C89         C737   1.492       .  S
O90          C92   1.268       .  A
O91        Ni102   1.928       .  S
C92          O98   1.272       .  A
C92         C726   1.482       .  S
C93         C866   1.479   1_545  S
H94          O95   0.966       .  S
O95        Ni103   1.909       .  S
O95         Ni97   1.909       .  S
O95        Ni102   1.900       .  S
O96         Ni97   1.922       .  S
Ni97        O101   1.908       .  S
Ni97         O99   1.924       .  S
O98        Ni103   1.938       .  S
C100        O101   1.267       .  A
C100        C686   1.469       .  S
O105       Ni111   1.932       .  S
O105        C126   1.271       .  A
O106       Ni129   1.915       .  S
O106        C115   1.270       .  A
O107       Ni111   1.906       .  S
O107       Ni129   1.916       .  S
O107       Ni123   1.907       .  S
O107        H130   0.965       .  S
C108        O125   1.276       .  A
C108        O117   1.280       .  A
C108        C977   1.483       .  S
O109       Ni128   1.945       .  S
O109        C115   1.276       .  A
O110       Ni128   1.908       .  S
O110        C112   1.270       .  A
Ni111       O114   1.930       .  S
Ni111       O116   1.901       .  S
C112        O122   1.276       .  A
C112        C786   1.493       .  S
O113       Ni129   1.911       .  S
O113        C119   1.274       .  A
O114        C119   1.278       .  A
C115        C637   1.494       .  S
O116        C118   1.267       .  A
O117       Ni128   1.930       .  S
C118        O124   1.274       .  A
C118        C766   1.480       .  S
C119        C966   1.484   1_455  S
H120        O121   0.966       .  S
O121       Ni129   1.907       .  S
O121       Ni123   1.908       .  S
O121       Ni128   1.896       .  S
O122       Ni123   1.939       .  S
Ni123       O127   1.913       .  S
Ni123       O125   1.920       .  S
O124       Ni129   1.946       .  S
C126        O127   1.269       .  A
C126        C666   1.476       .  S
O131       Ni137   1.930       .  S
O131        C152   1.272       .  A
O132       Ni155   1.906       .  S
O132        C141   1.268       .  A
O133       Ni137   1.902       .  S
O133       Ni155   1.911       .  S
O133       Ni149   1.904       .  S
O133        H156   0.966       .  S
C134        O151   1.272       .  A
C134        O143   1.279       .  A
C134        C706   1.476       .  S
O135       Ni154   1.951       .  S
O135        C141   1.278       .  A
O136       Ni154   1.909       .  S
O136        C138   1.272       .  A
Ni137       O140   1.930       .  S
Ni137       O142   1.903       .  S
C138        O148   1.276       .  A
C138        C886   1.489       .  S
O139       Ni155   1.915       .  S
O139        C145   1.275       .  A
O140        C145   1.277       .  A
C141        C646   1.494       .  S
O142        C144   1.267       .  A
O143       Ni154   1.936       .  S
C144        O150   1.273       .  A
C144        C906   1.479       .  S
C145        C717   1.485   1_655  S
H146        O147   0.966       .  S
O147       Ni155   1.915       .  S
O147       Ni149   1.913       .  S
O147       Ni154   1.902       .  S
O148       Ni149   1.930       .  S
Ni149       O153   1.918       .  S
Ni149       O151   1.912       .  S
O150       Ni155   1.942       .  S
C152        O153   1.270       .  A
C152        C617   1.480       .  S
O157       Ni163   1.923       .  S
O157        C178   1.271       .  A
O158       Ni181   1.900       .  S
O158        C167   1.267       .  A
O159       Ni163   1.901       .  S
O159       Ni181   1.909       .  S
O159       Ni175   1.918       .  S
O159        H182   0.966       .  S
C160        O177   1.281       .  A
C160        O169   1.278       .  A
C160        C557   1.487       .  S
O161       Ni180   1.933       .  S
O161        C167   1.274       .  A
O162       Ni180   1.909       .  S
O162        C164   1.270       .  A
Ni163       O166   1.926       .  S
Ni163       O168   1.901       .  S
C164        O174   1.276       .  A
C164        C546   1.491       .  S
O165       Ni181   1.927       .  S
O165        C171   1.277       .  A
O166        C171   1.277       .  A
C167        C597   1.483       .  S
O168        C170   1.267       .  A
O169       Ni180   1.925       .  S
C170        O176   1.270       .  A
C170        C526   1.477       .  S
C171        C577   1.495       .  S
H172        O173   0.966       .  S
O173       Ni181   1.916       .  S
O173       Ni175   1.901       .  S
O173       Ni180   1.894       .  S
O174       Ni175   1.932       .  S
Ni175       O179   1.919       .  S
Ni175       O177   1.935       .  S
O176       Ni181   1.930       .  S
C178        O179   1.271       .  A
C178        C657   1.475       .  S
O183       Ni189   1.929       .  S
O183        C204   1.272       .  A
O184       Ni207   1.904       .  S
O184        C193   1.269       .  A
O185       Ni189   1.899       .  S
O185       Ni207   1.907       .  S
O185       Ni201   1.907       .  S
O185        H208   0.967       .  S
C186        O203   1.278       .  A
C186        O195   1.278       .  A
C186        C486   1.471       .  S
O187       Ni206   1.930       .  S
O187        C193   1.273       .  A
O188       Ni206   1.910       .  S
O188        C190   1.271       .  A
Ni189       O192   1.934       .  S
Ni189       O194   1.908       .  S
C190        O200   1.274       .  A
C190        C437   1.489       .  S
O191       Ni207   1.910       .  S
O191        C197   1.274       .  A
O192        C197   1.279       .  A
C193        C606   1.480       .  S
O194        C196   1.267       .  A
O195       Ni206   1.918       .  S
C196        O202   1.273       .  A
C196        C466   1.478       .  S
C197        C506   1.484       .  S
H198        O199   0.966       .  S
O199       Ni207   1.904       .  S
O199       Ni201   1.896       .  S
O199       Ni206   1.889       .  S
O200       Ni201   1.929       .  S
Ni201       O205   1.911       .  S
Ni201       O203   1.921       .  S
O202       Ni207   1.944       .  S
C204        O205   1.269       .  A
C204        C677   1.473       .  S
O209       Ni215   1.922       .  S
O209        C230   1.271       .  A
O210       Ni233   1.910       .  S
O210        C219   1.268       .  A
O211       Ni215   1.910       .  S
O211       Ni233   1.913       .  S
O211       Ni227   1.926       .  S
O211        H234   0.966       .  S
C212        O229   1.277       .  A
C212        O221   1.277       .  A
C212        C426   1.472       .  S
O213       Ni232   1.938       .  S
O213        C219   1.275       .  A
O214       Ni232   1.915       .  S
O214        C216   1.272       .  A
Ni215       O218   1.927       .  S
Ni215       O220   1.917       .  S
C216        O226   1.275       .  A
C216        C566   1.496       .  S
O217       Ni233   1.911       .  S
O217        C223   1.270       .  A
O218        C223   1.272       .  A
C219        C386   1.492       .  S
O220        C222   1.274       .  A
O221       Ni232   1.922       .  S
C222        O228   1.279       .  A
C222        C586   1.489       .  S
C223        C406   1.485   1_455  S
H224        O225   0.966       .  S
O225       Ni233   1.900       .  S
O225       Ni227   1.905       .  S
O225       Ni232   1.899       .  S
O226       Ni227   1.935       .  S
Ni227       O231   1.919       .  S
Ni227       O229   1.924       .  S
O228       Ni233   1.951       .  S
C230        O231   1.272       .  A
C230        C806   1.476       .  S
O235       Ni241   1.925       .  S
O235        C256   1.270       .  A
O236       Ni259   1.906       .  S
O236        C245   1.269       .  A
O237       Ni241   1.893       .  S
O237       Ni259   1.895       .  S
O237       Ni253   1.913       .  S
O237        H260   0.966       .  S
C238        O255   1.279       .  A
C238        O247   1.279       .  A
C238        C446   1.480       .  S
O239       Ni258   1.941       .  S
O239        C245   1.276       .  A
O240       Ni258   1.903       .  S
O240        C242   1.269       .  A
Ni241       O244   1.925       .  S
Ni241       O246   1.898       .  S
C242        O252   1.273       .  A
C242        C366   1.487       .  S
O243       Ni259   1.921       .  S
O243        C249   1.279       .  A
O244        C249   1.279       .  A
C245        C377   1.492       .  S
O246        C248   1.267       .  A
O247       Ni258   1.928       .  S
C248        O254   1.274       .  A
C248        C337   1.482       .  S
C249        C457   1.489   1_655  S
H250        O251   0.966       .  S
O251       Ni259   1.911       .  S
O251       Ni253   1.909       .  S
O251       Ni258   1.895       .  S
O252       Ni253   1.929       .  S
Ni253       O257   1.920       .  S
Ni253       O255   1.930       .  S
O254       Ni259   1.935       .  S
C256        O257   1.271       .  A
C256        C826   1.475       .  S
O261       Ni267   1.932       .  S
O261        C282   1.272       .  A
O262       Ni285   1.913       .  S
O262        C271   1.267       .  A
O263       Ni267   1.905       .  S
O263       Ni285   1.913       .  S
O263       Ni279   1.907       .  S
O263        H286   0.967       .  S
C264        O281   1.278       .  A
C264        O273   1.278       .  A
C264        C537   1.484       .  S
O265       Ni284   1.942       .  S
O265        C271   1.275       .  A
O266       Ni284   1.907       .  S
O266        C268   1.271       .  A
Ni267       O270   1.929       .  S
Ni267       O272   1.906       .  S
C268        O278   1.273       .  A
C268        C417   1.486       .  S
O269       Ni285   1.911       .  S
O269        C275   1.274       .  A
O270        C275   1.276       .  A
C271        C317   1.495       .  S
O272        C274   1.268       .  A
O273       Ni284   1.927       .  S
C274        O280   1.271       .  A
C274        C397   1.481       .  S
C275        C517   1.484   1_565  S
H276        O277   0.966       .  S
O277       Ni285   1.911       .  S
O277       Ni279   1.916       .  S
O277       Ni284   1.902       .  S
O278       Ni279   1.926       .  S
Ni279       O283   1.928       .  S
Ni279       O281   1.927       .  S
O280       Ni285   1.934       .  S
C282        O283   1.273       .  A
C282        C926   1.489       .  S
O287       Ni293   1.933       .  S
O287        C308   1.272       .  A
O288       Ni311   1.919       .  S
O288        C297   1.270       .  A
O289       Ni293   1.903       .  S
O289       Ni311   1.912       .  S
O289       Ni305   1.907       .  S
O289        H312   0.966       .  S
C290        O307   1.278       .  A
C290        O299   1.277       .  A
C290        C357   1.479       .  S
O291       Ni310   1.931       .  S
O291        C297   1.274       .  A
O292       Ni310   1.904       .  S
O292        C294   1.270       .  A
Ni293       O296   1.930       .  S
Ni293       O298   1.908       .  S
C294        O304   1.274       .  A
C294        C477   1.484       .  S
O295       Ni311   1.910       .  S
O295        C301   1.276       .  A
O296        C301   1.278       .  A
C297        C326   1.494       .  S
O298        C300   1.268       .  A
O299       Ni310   1.918       .  S
C300        O306   1.271       .  A
C300        C497   1.482       .  S
C301        C346   1.478   1_545  S
H302        O303   0.966       .  S
O303       Ni311   1.909       .  S
O303       Ni305   1.908       .  S
O303       Ni310   1.892       .  S
O304       Ni305   1.928       .  S
Ni305       O309   1.920       .  S
Ni305       O307   1.929       .  S
O306       Ni311   1.930       .  S
C308        O309   1.271       .  A
C308        C626   1.478       .  S
C313        C314   1.405       .  A
C313        C318   1.406       .  A
C313        H323   1.083       .  S
C314        C319   1.491   1_564  S
C314        C315   1.407       .  A
C315        C316   1.399       .  A
C315        F320   1.358       .  S
C316        C317   1.407       .  A
C316        H321   1.083       .  S
C317        C318   1.414       .  A
C318        F322   1.357       .  S
C319        C324   1.405       .  A
C319        C328   1.406       .  A
C324        C325   1.397       .  A
C324        F329   1.358   1_556  S
C325        C326   1.408       .  A
C325        H330   1.083       .  S
C326        C327   1.412       .  A
C327        C328   1.406       .  A
C327        F331   1.357       .  S
C328        H332   1.083   1_545  S
C333        C334   1.402       .  A
C333        C338   1.393       .  A
C333        H343   1.084       .  S
C334        C339   1.484       .  S
C334        C335   1.408       .  A
C335        C336   1.403       .  A
C335        F340   1.357       .  S
C336        C337   1.405       .  A
C336        H341   1.083       .  S
C337        C338   1.410       .  A
C338        F342   1.358       .  S
C339        C344   1.407       .  A
C339        C348   1.405       .  A
C344        C345   1.400       .  A
C344        F349   1.357       .  S
C345        C346   1.405       .  A
C345        H350   1.083       .  S
C346        C347   1.408       .  A
C347        C348   1.396       .  A
C347        F351   1.358       .  S
C348        H352   1.084       .  S
C353        C354   1.407       .  A
C353        C358   1.402       .  A
C353        H363   1.083       .  S
C354        C359   1.484       .  S
C354        C355   1.406       .  A
C355        C356   1.394       .  A
C355        F360   1.357       .  S
C356        C357   1.404       .  A
C356        H361   1.083       .  S
C357        C358   1.408       .  A
C358        F362   1.358       .  S
C359        C364   1.407       .  A
C359        C368   1.402       .  A
C364        C365   1.403       .  A
C364        F369   1.357       .  S
C365        C366   1.409       .  A
C365        H370   1.083       .  S
C366        C367   1.411       .  A
C367        C368   1.392       .  A
C367        F371   1.358       .  S
C368        H372   1.083       .  S
C373        C374   1.404       .  A
C373        C378   1.404       .  A
C373        H383   1.083   1_655  S
C374        C379   1.487   1_656  S
C374        C375   1.406       .  A
C375        C376   1.398       .  A
C375        F380   1.358   1_556  S
C376        C377   1.408       .  A
C376        H381   1.083       .  S
C377        C378   1.412       .  A
C378        F382   1.357       .  S
C379        C384   1.405       .  A
C379        C388   1.405       .  A
C384        C385   1.398       .  A
C384        F389   1.357   1_554  S
C385        C386   1.408       .  A
C385        H390   1.083       .  S
C386        C387   1.413       .  A
C387        C388   1.404       .  A
C387        F391   1.357       .  S
C388        H392   1.083   1_455  S
C393        C394   1.401       .  A
C393        C398   1.400       .  A
C393        H403   1.083       .  S
C394        C399   1.475       .  S
C394        C395   1.404       .  A
C395        C396   1.394       .  A
C395        F400   1.358       .  S
C396        C397   1.405       .  A
C396        H401   1.083       .  S
C397        C398   1.412       .  A
C398        F402   1.358       .  S
C399        C404   1.405       .  A
C399        C408   1.398       .  A
C404        C405   1.405       .  A
C404        F409   1.357       .  S
C405        C406   1.410       .  A
C405        H410   1.083       .  S
C406        C407   1.412       .  A
C407        C408   1.389       .  A
C407        F411   1.358       .  S
C408        H412   1.084       .  S
C413        C414   1.405       .  A
C413        C418   1.400       .  A
C413        H423   1.083       .  S
C414        C419   1.486       .  S
C414        C415   1.407       .  A
C415        C416   1.395       .  A
C415        F420   1.358       .  S
C416        C417   1.407       .  A
C416        H421   1.083       .  S
C417        C418   1.410       .  A
C418        F422   1.357       .  S
C419        C424   1.410       .  A
C419        C428   1.405       .  A
C424        C425   1.399       .  A
C424        F429   1.358       .  S
C425        C426   1.402       .  A
C425        H430   1.084       .  S
C426        C427   1.404       .  A
C427        C428   1.397       .  A
C427        F431   1.358       .  S
C428        H432   1.083       .  S
C433        C434   1.405       .  A
C433        C438   1.404       .  A
C433        H443   1.083       .  S
C434        C439   1.487       .  S
C434        C435   1.406       .  A
C435        C436   1.395       .  A
C435        F440   1.358       .  S
C436        C437   1.408       .  A
C436        H441   1.083       .  S
C437        C438   1.412       .  A
C438        F442   1.357       .  S
C439        C444   1.409       .  A
C439        C448   1.404       .  A
C444        C445   1.405       .  A
C444        F449   1.358       .  S
C445        C446   1.406       .  A
C445        H450   1.083       .  S
C446        C447   1.405       .  A
C447        C448   1.397       .  A
C447        F451   1.357       .  S
C448        H452   1.083       .  S
C453        C454   1.406       .  A
C453        C458   1.397       .  A
C453        H463   1.083       .  S
C454        C459   1.492       .  S
C454        C455   1.408       .  A
C455        C456   1.401       .  A
C455        F460   1.357       .  S
C456        C457   1.409       .  A
C456        H461   1.083       .  S
C457        C458   1.410       .  A
C458        F462   1.358       .  S
C459        C464   1.409       .  A
C459        C468   1.408       .  A
C464        C465   1.399   1_565  A
C464        F469   1.357       .  S
C465        C466   1.404       .  A
C465        H470   1.083       .  S
C466        C467   1.406       .  A
C467        C468   1.400   1_545  A
C467        F471   1.358       .  S
C468        H472   1.083       .  S
C473        C474   1.401       .  A
C473        C478   1.392       .  A
C473        H483   1.083       .  S
C474        C479   1.480       .  S
C474        C475   1.406       .  A
C475        C476   1.400       .  A
C475        F480   1.357       .  S
C476        C477   1.407       .  A
C476        H481   1.083       .  S
C477        C478   1.411       .  A
C478        F482   1.358       .  S
C479        C484   1.407       .  A
C479        C488   1.404       .  A
C484        C485   1.396       .  A
C484        F489   1.357       .  S
C485        C486   1.403       .  A
C485        H490   1.083       .  S
C486        C487   1.406       .  A
C487        C488   1.396       .  A
C487        F491   1.358       .  S
C488        H492   1.083       .  S
C493        C494   1.406       .  A
C493        C498   1.396   1_455  A
C493        H503   1.083       .  S
C494        C499   1.488       .  S
C494        C495   1.408       .  A
C495        C496   1.400   1_455  A
C495        F500   1.357       .  S
C496        C497   1.407       .  A
C496        H501   1.083       .  S
C497        C498   1.407       .  A
C498        F502   1.358       .  S
C499        C504   1.407       .  A
C499        C508   1.408       .  A
C504        C505   1.390       .  A
C504        F509   1.358       .  S
C505        C506   1.405       .  A
C505        H510   1.083       .  S
C506        C507   1.410       .  A
C507        C508   1.405       .  A
C507        F511   1.357       .  S
C508        H512   1.083       .  S
C513        C514   1.399       .  A
C513        C518   1.390       .  A
C513        H523   1.084       .  S
C514        C519   1.478       .  S
C514        C515   1.407       .  A
C515        C516   1.403       .  A
C515        F520   1.357       .  S
C516        C517   1.408       .  A
C516        H521   1.083       .  S
C517        C518   1.411       .  A
C518        F522   1.358   1_545  S
C519        C524   1.406       .  A
C519        C528   1.403       .  A
C524        C525   1.394   1_655  A
C524        F529   1.358       .  S
C525        C526   1.404       .  A
C525        H530   1.083       .  S
C526        C527   1.409       .  A
C527        C528   1.398   1_455  A
C527        F531   1.358       .  S
C528        H532   1.083       .  S
C533        C534   1.406       .  A
C533        C538   1.401       .  A
C533        H543   1.083       .  S
C534        C539   1.490       .  S
C534        C535   1.408       .  A
C535        C536   1.400       .  A
C535        F540   1.358       .  S
C536        C537   1.405       .  A
C536        H541   1.083       .  S
C537        C538   1.408       .  A
C538        F542   1.357       .  S
C539        C544   1.408       .  A
C539        C548   1.404       .  A
C544        C545   1.402       .  A
C544        F549   1.357       .  S
C545        C546   1.408       .  A
C545        H550   1.083       .  S
C546        C547   1.413       .  A
C547        C548   1.397       .  A
C547        F551   1.358       .  S
C548        H552   1.083       .  S
C553        C554   1.407       .  A
C553        C558   1.402       .  A
C553        H563   1.083       .  S
C554        C559   1.497       .  S
C554        C555   1.410       .  A
C555        C556   1.402       .  A
C555        F560   1.357       .  S
C556        C557   1.406       .  A
C556        H561   1.083       .  S
C557        C558   1.409       .  A
C558        F562   1.358       .  S
C559        C564   1.409       .  A
C559        C568   1.407       .  A
C564        C565   1.399       .  A
C564        F569   1.357       .  S
C565        C566   1.409       .  A
C565        H570   1.083       .  S
C566        C567   1.412       .  A
C567        C568   1.405       .  A
C567        F571   1.357       .  S
C568        H572   1.083       .  S
C573        C574   1.410       .  A
C573        C578   1.409       .  A
C573        H583   1.083       .  S
C574        C579   1.494       .  S
C574        C575   1.405       .  A
C575        C576   1.393       .  A
C575        F580   1.358       .  S
C576        C577   1.408       .  A
C576        H581   1.083       .  S
C577        C578   1.411       .  A
C578        F582   1.357       .  S
C579        C584   1.407       .  A
C579        C588   1.409       .  A
C584        C585   1.401   1_545  A
C584        F589   1.357       .  S
C585        C586   1.408       .  A
C585        H590   1.083       .  S
C586        C587   1.408       .  A
C587        C588   1.402   1_565  A
C587        F591   1.357       .  S
C588        H592   1.083       .  S
C593        C594   1.402       .  A
C593        C598   1.394       .  A
C593        H603   1.083       .  S
C594        C599   1.480   1_554  S
C594        C595   1.406       .  A
C595        C596   1.398       .  A
C595        F600   1.358       .  S
C596        C597   1.408       .  A
C596        H601   1.083       .  S
C597        C598   1.410       .  A
C598        F602   1.357       .  S
C599        C604   1.406       .  A
C599        C608   1.403       .  A
C604        C605   1.397       .  A
C604        F609   1.357       .  S
C605        C606   1.406       .  A
C605        H610   1.083       .  S
C606        C607   1.410       .  A
C607        C608   1.396       .  A
C607        F611   1.358       .  S
C608        H612   1.083       .  S
C613        C614   1.402       .  A
C613        C618   1.397       .  A
C613        H623   1.083       .  S
C614        C619   1.485       .  S
C614        C615   1.408       .  A
C615        C616   1.406       .  A
C615        F620   1.357       .  S
C616        C617   1.405       .  A
C616        H621   1.083       .  S
C617        C618   1.408       .  A
C618        F622   1.358       .  S
C619        C624   1.408       .  A
C619        C628   1.403       .  A
C624        C625   1.405       .  A
C624        F629   1.357       .  S
C625        C626   1.404       .  A
C625        H630   1.083       .  S
C626        C627   1.406       .  A
C627        C628   1.399       .  A
C627        F631   1.358       .  S
C628        H632   1.083       .  S
C633        C634   1.404       .  A
C633        C638   1.403       .  A
C633        H643   1.083       .  S
C634        C639   1.489   1_455  S
C634        C635   1.406       .  A
C635        C636   1.404       .  A
C635        F640   1.357       .  S
C636        C637   1.409       .  A
C636        H641   1.083       .  S
C637        C638   1.411       .  A
C638        F642   1.357       .  S
C639        C644   1.406   1_655  A
C639        C648   1.404       .  A
C644        C645   1.404   1_455  A
C644        F649   1.358       .  S
C645        C646   1.410       .  A
C645        H650   1.083       .  S
C646        C647   1.410       .  A
C647        C648   1.403       .  A
C647        F651   1.357       .  S
C648        H652   1.083       .  S
C653        C654   1.406       .  A
C653        C658   1.405       .  A
C653        H663   1.083       .  S
C654        C659   1.479       .  S
C654        C655   1.403       .  A
C655        C656   1.394       .  A
C655        F660   1.358       .  S
C656        C657   1.404       .  A
C656        H661   1.084       .  S
C657        C658   1.406       .  A
C658        F662   1.357       .  S
C659        C664   1.405       .  A
C659        C668   1.404       .  A
C664        C665   1.399       .  A
C664        F669   1.358       .  S
C665        C666   1.405       .  A
C665        H670   1.084       .  S
C666        C667   1.405       .  A
C667        C668   1.402       .  A
C667        F671   1.357       .  S
C668        H672   1.083       .  S
C673        C674   1.404       .  A
C673        C678   1.394       .  A
C673        H683   1.083       .  S
C674        C679   1.484       .  S
C674        C675   1.408       .  A
C675        C676   1.403       .  A
C675        F680   1.357       .  S
C676        C677   1.404       .  A
C676        H681   1.083       .  S
C677        C678   1.404       .  A
C678        F682   1.358       .  S
C679        C684   1.408       .  A
C679        C688   1.406       .  A
C684        C685   1.398       .  A
C684        F689   1.357       .  S
C685        C686   1.401       .  A
C685        H690   1.084       .  S
C686        C687   1.404       .  A
C687        C688   1.399       .  A
C687        F691   1.358       .  S
C688        H692   1.083       .  S
C693        C694   1.407       .  A
C693        C698   1.403       .  A
C693        H703   1.083       .  S
C694        C699   1.486       .  S
C694        C695   1.406       .  A
C695        C696   1.392       .  A
C695        F700   1.357       .  S
C696        C697   1.405       .  A
C696        H701   1.083       .  S
C697        C698   1.411       .  A
C698        F702   1.358       .  S
C699        C704   1.408       .  A
C699        C708   1.407       .  A
C704        C705   1.399       .  A
C704        F709   1.358       .  S
C705        C706   1.405       .  A
C705        H710   1.084       .  S
C706        C707   1.403       .  A
C707        C708   1.398       .  A
C707        F711   1.357       .  S
C708        H712   1.083       .  S
C713        C714   1.403       .  A
C713        C718   1.392       .  A
C713        H723   1.083       .  S
C714        C719   1.489       .  S
C714        C715   1.410       .  A
C715        C716   1.406       .  A
C715        F720   1.357       .  S
C716        C717   1.407       .  A
C716        H721   1.082       .  S
C717        C718   1.409       .  A
C718        F722   1.358       .  S
C719        C724   1.408       .  A
C719        C728   1.406       .  A
C724        C725   1.396       .  A
C724        F729   1.358       .  S
C725        C726   1.404       .  A
C725        H730   1.083       .  S
C726        C727   1.409       .  A
C727        C728   1.402       .  A
C727        F731   1.357       .  S
C728        H732   1.083       .  S
C733        C734   1.403       .  A
C733        C738   1.403       .  A
C733        H743   1.083   1_545  S
C734        C739   1.483   1_545  S
C734        C735   1.404       .  A
C735        C736   1.399       .  A
C735        F740   1.357       .  S
C736        C737   1.408       .  A
C736        H741   1.083       .  S
C737        C738   1.413       .  A
C738        F742   1.357       .  S
C739        C744   1.404       .  A
C739        C748   1.402       .  A
C744        C745   1.400       .  A
C744        F749   1.358       .  S
C745        C746   1.409       .  A
C745        H750   1.083       .  S
C746        C747   1.414       .  A
C747        C748   1.403       .  A
C747        F751   1.357       .  S
C748        H752   1.083   1_565  S
C753        C754   1.405       .  A
C753        C758   1.394       .  A
C753        H763   1.082       .  S
C754        C759   1.494       .  S
C754        C755   1.412       .  A
C755        C756   1.406       .  A
C755        F760   1.357       .  S
C756        C757   1.405       .  A
C756        H761   1.082       .  S
C757        C758   1.408       .  A
C758        F762   1.358       .  S
C759        C764   1.410       .  A
C759        C768   1.409       .  A
C764        C765   1.397       .  A
C764        F769   1.357       .  S
C765        C766   1.404       .  A
C765        H770   1.084       .  S
C766        C767   1.406       .  A
C767        C768   1.402       .  A
C767        F771   1.358       .  S
C768        H772   1.083       .  S
C773        C774   1.407       .  A
C773        C778   1.402       .  A
C773        H783   1.083       .  S
C774        C779   1.496       .  S
C774        C775   1.412       .  A
C775        C776   1.400       .  A
C775        F780   1.357       .  S
C776        C777   1.403       .  A
C776        H781   1.083       .  S
C777        C778   1.408       .  A
C778        F782   1.358       .  S
C779        C784   1.412       .  A
C779        C788   1.403       .  A
C784        C785   1.408       .  A
C784        F789   1.357       .  S
C785        C786   1.409       .  A
C785        H790   1.083       .  S
C786        C787   1.411       .  A
C787        C788   1.394       .  A
C787        F791   1.357       .  S
C788        H792   1.083       .  S
C793        C794   1.409       .  A
C793        C798   1.409       .  A
C793        H803   1.083       .  S
C794        C799   1.487       .  S
C794        C795   1.405       .  A
C795        C796   1.394       .  A
C795        F800   1.358       .  S
C796        C797   1.404       .  A
C796        H801   1.084       .  S
C797        C798   1.407       .  A
C798        F802   1.357       .  S
C799        C804   1.410       .  A
C799        C808   1.403       .  A
C804        C805   1.403       .  A
C804        F809   1.357       .  S
C805        C806   1.401       .  A
C805        H810   1.083       .  S
C806        C807   1.407       .  A
C807        C808   1.400       .  A
C807        F811   1.358       .  S
C808        H812   1.083       .  S
C813        C814   1.404       .  A
C813        C818   1.401       .  A
C813        H823   1.083       .  S
C814        C819   1.478       .  S
C814        C815   1.404       .  A
C815        C816   1.398       .  A
C815        F820   1.358       .  S
C816        C817   1.405       .  A
C816        H821   1.084       .  S
C817        C818   1.404       .  A
C818        F822   1.357       .  S
C819        C824   1.404       .  A
C819        C828   1.404       .  A
C824        C825   1.396       .  A
C824        F829   1.358       .  S
C825        C826   1.404       .  A
C825        H830   1.084       .  S
C826        C827   1.406       .  A
C827        C828   1.404       .  A
C827        F831   1.357       .  S
C828        H832   1.083       .  S
C833        C834   1.404       .  A
C833        C838   1.395       .  A
C833        H843   1.082       .  S
C834        C839   1.497       .  S
C834        C835   1.411       .  A
C835        C836   1.407       .  A
C835        F840   1.357       .  S
C836        C837   1.410       .  A
C836        H841   1.083       .  S
C837        C838   1.411       .  A
C838        F842   1.357       .  S
C839        C844   1.411       .  A
C839        C848   1.409       .  A
C844        C845   1.398       .  A
C844        F849   1.357       .  S
C845        C846   1.402       .  A
C845        H850   1.083       .  S
C846        C847   1.408       .  A
C847        C848   1.404       .  A
C847        F851   1.358       .  S
C848        H852   1.082       .  S
C853        C854   1.407       .  A
C853        C858   1.397   1_455  A
C853        H863   1.083       .  S
C854        C859   1.485       .  S
C854        C855   1.408       .  A
C855        C856   1.396   1_455  A
C855        F860   1.358       .  S
C856        C857   1.405       .  A
C856        H861   1.083       .  S
C857        C858   1.406       .  A
C858        F862   1.358       .  S
C859        C864   1.408       .  A
C859        C868   1.405       .  A
C864        C865   1.399       .  A
C864        F869   1.357       .  S
C865        C866   1.405       .  A
C865        H870   1.083       .  S
C866        C867   1.408       .  A
C867        C868   1.394       .  A
C867        F871   1.358       .  S
C868        H872   1.083       .  S
C873        C874   1.407       .  A
C873        C878   1.401       .  A
C873        H883   1.083       .  S
C874        C879   1.491       .  S
C874        C875   1.410       .  A
C875        C876   1.396       .  A
C875        F880   1.357       .  S
C876        C877   1.402       .  A
C876        H881   1.083       .  S
C877        C878   1.409       .  A
C878        F882   1.358       .  S
C879        C884   1.409       .  A
C879        C888   1.404       .  A
C884        C885   1.404       .  A
C884        F889   1.357       .  S
C885        C886   1.409       .  A
C885        H890   1.083       .  S
C886        C887   1.411       .  A
C887        C888   1.393       .  A
C887        F891   1.358       .  S
C888        H892   1.083       .  S
C893        C894   1.402       .  A
C893        C898   1.403       .  A
C893        H903   1.083       .  S
C894        C899   1.477       .  S
C894        C895   1.403       .  A
C895        C896   1.394       .  A
C895        F900   1.358       .  S
C896        C897   1.408       .  A
C896        H901   1.083       .  S
C897        C898   1.413       .  A
C898        F902   1.357       .  S
C899        C904   1.405       .  A
C899        C908   1.401       .  A
C904        C905   1.401   1_565  A
C904        F909   1.357       .  S
C905        C906   1.407       .  A
C905        H910   1.083       .  S
C906        C907   1.408       .  A
C907        C908   1.395   1_545  A
C907        F911   1.358       .  S
C908        H912   1.083       .  S
C913        C914   1.403       .  A
C913        C918   1.401       .  A
C913        H923   1.083       .  S
C914        C919   1.490       .  S
C914        C915   1.409       .  A
C915        C916   1.407       .  A
C915        F920   1.357       .  S
C916        C917   1.406       .  A
C916        H921   1.083       .  S
C917        C918   1.409       .  A
C918        F922   1.358       .  S
C919        C924   1.409       .  A
C919        C928   1.403       .  A
C924        C925   1.408       .  A
C924        F929   1.357       .  S
C925        C926   1.407       .  A
C925        H930   1.083       .  S
C926        C927   1.410       .  A
C927        C928   1.401       .  A
C927        F931   1.358       .  S
C928        H932   1.083       .  S
C933        C934   1.407       .  A
C933        C938   1.409       .  A
C933        H943   1.083       .  S
C934        C939   1.493       .  S
C934        C935   1.405       .  A
C935        C936   1.398       .  A
C935        F940   1.357       .  S
C936        C937   1.408       .  A
C936        H941   1.083       .  S
C937        C938   1.415       .  A
C938        F942   1.358       .  S
C939        C944   1.406       .  A
C939        C948   1.406       .  A
C944        C945   1.400       .  A
C944        F949   1.357       .  S
C945        C946   1.408       .  A
C945        H950   1.083       .  S
C946        C947   1.415       .  A
C947        C948   1.408       .  A
C947        F951   1.357       .  S
C948        H952   1.083       .  S
C953        C954   1.404       .  A
C953        C958   1.396   1_545  A
C953        H963   1.083       .  S
C954        C959   1.483       .  S
C954        C955   1.407       .  A
C955        C956   1.401   1_545  A
C955        F960   1.358       .  S
C956        C957   1.406       .  A
C956        H961   1.083       .  S
C957        C958   1.407       .  A
C958        F962   1.357       .  S
C959        C964   1.405       .  A
C959        C968   1.406       .  A
C964        C965   1.392       .  A
C964        F969   1.358       .  S
C965        C966   1.406       .  A
C965        H970   1.083       .  S
C966        C967   1.410       .  A
C967        C968   1.404       .  A
C967        F971   1.357       .  S
C968        H972   1.083       .  S
C973        C974   1.404       .  A
C973        C978   1.403       .  A
C973        H983   1.083       .  S
C974        C979   1.483       .  S
C974        C975   1.406       .  A
C975        C976   1.397       .  A
C975        F980   1.357       .  S
C976        C977   1.404       .  A
C976        H981   1.083       .  S
C977        C978   1.411       .  A
C978        F982   1.358       .  S
C979        C984   1.407       .  A
C979        C988   1.399       .  A
C984        C985   1.408       .  A
C984        F989   1.357       .  S
C985        C986   1.410       .  A
C985        H990   1.083       .  S
C986        C987   1.413       .  A
C987        C988   1.391       .  A
C987        F991   1.358       .  S
C988        H992   1.084       .  S
C993        C994   1.403       .  A
C993        C998   1.402       .  A
C993       H1003   1.083       .  S
C994        C999   1.476       .  S
C994        C995   1.402       .  A
C995        C996   1.394       .  A
C995       F1000   1.358       .  S
C996        C997   1.409       .  A
C996       H1001   1.083       .  S
C997        C998   1.412       .  A
C998       F1002   1.357       .  S
C999       C1004   1.403       .  A
C999       C1008   1.402       .  A
C1004      C1005   1.398   1_655  A
C1004      F1009   1.357       .  S
C1005      C1006   1.407       .  A
C1005      H1010   1.083       .  S
C1006      C1007   1.409       .  A
C1007      C1008   1.397   1_455  A
C1007      F1011   1.358       .  S
C1008      H1012   1.083       .  S
C1013      C1014   1.404       .  A
C1013      C1018   1.399       .  A
C1013      H1023   1.083       .  S
C1014      C1019   1.484       .  S
C1014      C1015   1.407       .  A
C1015      C1016   1.398       .  A
C1015      F1020   1.358       .  S
C1016      C1017   1.404       .  A
C1016      H1021   1.083       .  S
C1017      C1018   1.408       .  A
C1018      F1022   1.358       .  S
C1019      C1024   1.407       .  A
C1019      C1028   1.401       .  A
C1024      C1025   1.402       .  A
C1024      F1029   1.357       .  S
C1025      C1026   1.409       .  A
C1025      H1030   1.083       .  S
C1026      C1027   1.414       .  A
C1027      C1028   1.394       .  A
C1027      F1031   1.358       .  S
C1028      H1032   1.083       .  S
