geometry optimzed in LAMMPS
_audit_creation_date              2020-12-01 
_audit_creation_method            'lammps2cif' 
_symmetry_space_group_name_H-M    'P1' 
_symmetry_Int_Tables_number       1 
_symmetry_cell_setting            triclinic 
loop_ 
_symmetry_equiv_pos_as_xyz 
  x,y,z 
_cell_length_a                    33.9644759 
_cell_length_b                    34.00476014311812 
_cell_length_c                    44.43069072146224 
_cell_angle_alpha                 90.06671051820408 
_cell_angle_beta                  90.09329897108141 
_cell_angle_gamma                 119.95900813374625 
loop_ 
_atom_site_label 
_atom_site_type_symbol 
_atom_site_fract_x 
_atom_site_fract_y 
_atom_site_fract_z 
_atom_site_charge 
O1          O  0.29482049  0.29483311  0.40758165    -0.83600
C2          C  0.34623757  0.35431606  0.02189056     0.95800
O3          O  0.35410582  0.33138054  0.00272805    -0.72700
O4          O  0.33445920  0.27650780  0.45553022    -0.76300
Al5        Al  0.35809740  0.34007406  0.46057678     1.49000
C6          C  0.29565623  0.24195067  0.45776064     0.91000
O7          O  0.21222248  0.28677269  0.46859397    -0.82500
O8          O  0.26948694  0.39423747  0.44607611    -0.76100
Al9        Al  0.25836022  0.29484294  0.44019845     1.90100
O10         O  0.24687910  0.34500317  0.49873259    -0.75100
O11         O  0.35507310  0.43322905  0.46124042    -0.75000
O12         O  0.33177495  0.38080778  0.01392962    -0.80600
O13         O  0.39767180  0.40300681  0.46599576    -0.78800
O14         O  0.30536505  0.33965582  0.45993604    -1.15000
O15         O  0.36478241  0.34939873  0.41785125    -0.74200
C16         C  0.33491188  0.32285788  0.39922583     0.96500
C17         C  0.21204241  0.30834265  0.49167001     0.92900
Al18       Al  0.30110490  0.38426347  0.47838430     1.55600
O19         O  0.26120330  0.24651859  0.46013870    -0.78800
C20         C  0.39392986  0.43756697  0.46263388     0.97100
C21         C  0.25360321  0.37340570  0.42157064     0.92000
O22         O  0.24941911  0.33513886  0.41678264    -0.84100
O23         O  0.02909180  0.29555275  0.34563365    -0.83600
C24         C  0.02835240  0.35138023  0.23165876     0.95800
O25         O  0.99851288  0.32867695  0.25138781    -0.72700
O26         O  0.96710386  0.27508133  0.29926134    -0.76300
Al27       Al  0.00613491  0.33843114  0.29362088     1.49000
C28         C  0.97138304  0.24070089  0.29586025     0.91000
O29         O  0.09833102  0.28580580  0.28204854    -0.82500
O30         O  0.15020796  0.39401436  0.30354665    -0.76100
Al31       Al  0.06277047  0.29451011  0.31177024     1.90100
O32         O  0.11997391  0.34322390  0.25156001    -0.75100
O33         O  0.10188731  0.43201671  0.29049903    -0.75000
O34         O  0.06953492  0.37837752  0.23880523    -0.80600
O35         O  0.02869568  0.40106845  0.28805886    -0.78800
O36         O  0.05876584  0.33855072  0.29250609    -1.15000
O37         O  0.01206360  0.34906780  0.33632614    -0.74200
C38         C  0.01996580  0.32539169  0.35482521     0.96500
C39         C  0.11847792  0.30667744  0.25848228     0.92900
Al40       Al  0.10614119  0.38288217  0.27282598     1.55600
O41         O  0.01036951  0.24535804  0.29323687    -0.78800
C42         C  0.06703866  0.43588419  0.29051314     0.97100
C43         C  0.14758295  0.37373231  0.32784108     0.92000
O44         O  0.11399419  0.33560518  0.33365955    -0.84100
O45         O  0.31130624  0.00883136  0.32408384    -0.83600
C46         C  0.36850363  0.01446984  0.43908308     0.95800
O47         O  0.34509604  0.98409564  0.41976539    -0.72700
O48         O  0.29157991  0.94999119  0.37187752    -0.76300
Al49       Al  0.35494575  0.98970203  0.37769037     1.49000
C50         C  0.25684225  0.95403003  0.37386688     0.91000
O51         O  0.30133130  0.08194147  0.38569267    -0.82500
O52         O  0.40831333  0.13320713  0.36531533    -0.76100
Al53       Al  0.31018142  0.04454733  0.35701580     1.90100
O54         O  0.35788771  0.10343661  0.41720969    -0.75100
O55         O  0.44783021  0.08605037  0.37919764    -0.75000
O56         O  0.39511364  0.05537571  0.43137883    -0.80600
O57         O  0.41790963  0.01325224  0.38399733    -0.78800
O58         O  0.35438917  0.04189574  0.37725748    -1.15000
O59         O  0.36537010  0.99293478  0.33512346    -0.74200
C60         C  0.33921099  0.99627935  0.31618745     0.96500
C61         C  0.32179896  0.10242898  0.40945309     0.92900
Al62       Al  0.39831406  0.09023181  0.39655661     1.55600
O63         O  0.26112565  0.99291377  0.37603359    -0.78800
C64         C  0.45244826  0.05171471  0.38126514     0.97100
C65         C  0.38842462  0.12912495  0.34053776     0.92000
O66         O  0.35112921  0.09450238  0.33445975    -0.84100
O67         O  0.30841792  0.27309712  0.26107639    -0.83600
C68         C  0.36807302  0.32931964  0.14804227     0.95800
O69         O  0.34530786  0.33700097  0.16752926    -0.72700
O70         O  0.29064719  0.31604291  0.21498273    -0.76300
Al71       Al  0.35386988  0.33917255  0.20982295     1.49000
C72         C  0.25590929  0.27786021  0.21118309     0.91000
O73         O  0.29935627  0.19464221  0.19731628    -0.82500
O74         O  0.40906418  0.25194449  0.22258116    -0.76100
Al75       Al  0.30782866  0.23853016  0.22720928     1.90100
O76         O  0.36021204  0.22877697  0.16956816    -0.75100
O77         O  0.44741707  0.33712356  0.20779532    -0.75000
O78         O  0.39418411  0.31406398  0.15548965    -0.80600
O79         O  0.41641692  0.37903965  0.20455141    -0.78800
O80         O  0.35338507  0.28644222  0.20889086    -1.15000
O81         O  0.36334978  0.34337116  0.25270151    -0.74200
C82         C  0.33838740  0.31169152  0.27079105     0.96500
C83         C  0.32227408  0.19457518  0.17510298     0.92900
Al84       Al  0.39856528  0.28317799  0.19045160     1.55600
O85         O  0.26000391  0.24332211  0.20785982    -0.78800
C86         C  0.45131478  0.37571898  0.20684056     0.97100
C87         C  0.38662816  0.23324701  0.24603775     0.92000
O88         O  0.34726396  0.22689806  0.24986377    -0.84100
O89         O  0.70564099  0.71073915  0.01098076    -0.83600
C90         C  0.64615520  0.65408907  0.39717518     0.95800
O91         O  0.66857901  0.64639295  0.41693579    -0.72700
O92         O  0.72350946  0.66820801  0.46439134    -0.76300
Al93       Al  0.66022107  0.64499149  0.45924437     1.49000
C94         C  0.75840955  0.70643042  0.46115792     0.91000
O95         O  0.71462876  0.79018697  0.44819210    -0.82500
O96         O  0.60583921  0.73347114  0.47076288    -0.76100
Al97       Al  0.70611624  0.74548828  0.47734068     1.90100
O98         O  0.65575416  0.75619535  0.41846666    -0.75100
O99         O  0.56675104  0.64774020  0.45574193    -0.75000
O100        O  0.62086369  0.67040922  0.40423788    -0.80600
O101        O  0.59764626  0.60551180  0.45428397    -0.78800
O102        O  0.66097824  0.69786817  0.45820288    -1.15000
O103        O  0.65067082  0.64081064  0.00211164    -0.74200
C104        C  0.67550163  0.67223616  0.02044962     0.96500
C105        C  0.69264040  0.79084536  0.42554553     0.92900
Al106      Al  0.61645705  0.70166652  0.43896582     1.55600
O107        O  0.75450063  0.74119894  0.45825236    -0.78800
C108        C  0.56290195  0.60910152  0.45644972     0.97100
C109        C  0.62724584  0.75110437  0.49484545     0.92000
O110        O  0.66591887  0.75615223  0.49973903    -0.84100
O111        O  0.99144601  0.28078918  0.49047154    -0.83600
C112        C  0.98240201  0.32895756  0.10543732     0.95800
O113        O  0.01347372  0.33742607  0.08637184    -0.72700
O114        O  0.04973269  0.31983453  0.03880816    -0.76300
Al115      Al  0.00928031  0.34266866  0.04432399     1.49000
C116        C  0.04607199  0.28127758  0.04050320     0.91000
O117        O  0.91842478  0.19723217  0.05141376    -0.82500
O118        O  0.86694072  0.25530302  0.02840182    -0.76100
Al119      Al  0.95557553  0.24352886  0.02309701     1.90100
O120        O  0.89210167  0.23016192  0.08083229    -0.75100
O121        O  0.91311728  0.33992229  0.04535086    -0.75000
O122        O  0.94145067  0.31447595  0.09734783    -0.80600
O123        O  0.98591237  0.38186635  0.05030430    -0.78800
O124        O  0.95710565  0.28998553  0.04311780    -1.15000
O125        O  0.00696542  0.35050781  0.50176613    -0.74200
C126        C  0.00380503  0.32121888  0.48273952     0.96500
C127        C  0.89543784  0.19609965  0.07399210     0.92900
Al128      Al  0.90780907  0.28525368  0.06139085     1.55600
O129        O  0.00728044  0.24660588  0.04264926    -0.78800
C130        C  0.94775654  0.37852189  0.04717000     0.97100
C131        C  0.87222268  0.23921855  0.00412466     0.92000
O132        O  0.90588406  0.23402884  0.00003958    -0.84100
O133        O  0.73755226  0.04986599  0.43262461    -0.83600
C134        C  0.67114031  0.02294337  0.31459877     0.95800
O135        O  0.65119903  0.99516715  0.33591794    -0.72700
O136        O  0.69140198  0.96206172  0.36869121    -0.76300
Al137      Al  0.66418628  0.99734708  0.37843478     1.49000
C138        C  0.72390255  0.96217306  0.38219718     0.91000
O139        O  0.79896425  0.07095250  0.35814760    -0.82500
O140        O  0.73440755  0.13411797  0.39092759    -0.76100
Al141      Al  0.76580770  0.05936164  0.39503061     1.90100
O142        O  0.77940992  0.12033123  0.34264447    -0.75100
O143        O  0.65702580  0.08390428  0.36249833    -0.75000
O144        O  0.70078177  0.06368963  0.31978786    -0.80600
O145        O  0.62649267  0.02161489  0.38851755    -0.78800
O146        O  0.71540666  0.05056330  0.37616501    -1.15000
O147        O  0.66978111  0.99206316  0.42151526    -0.74200
C148        C  0.69881196  0.01862073  0.44069881     0.96500
C149        C  0.80580350  0.10400210  0.34145107     0.92900
Al150      Al  0.71770323  0.09668821  0.35570041     1.55600
O151        O  0.75380972  0.99808629  0.39446562    -0.78800
C152        C  0.62429101  0.05440189  0.37746433     0.97100
C153        C  0.76978941  0.14426229  0.40588049     0.92000
O154        O  0.79071659  0.12275073  0.40216427    -0.84100
O155        O  0.70328015  0.97466514  0.07439788    -0.83600
C156        C  0.64683579  0.96855597  0.18981333     0.95800
O157        O  0.67080075  0.99870784  0.17063714    -0.72700
O158        O  0.72400491  0.03408922  0.12291571    -0.76300
Al159      Al  0.66087785  0.99423575  0.12877099     1.49000
C160        C  0.75879004  0.03013329  0.12396602     0.91000
O161        O  0.71459604  0.90234663  0.13636197    -0.82500
O162        O  0.60592360  0.85117239  0.11418809    -0.76100
Al163      Al  0.70532027  0.93938313  0.10739091     1.90100
O164        O  0.65624273  0.87849995  0.16644413    -0.75100
O165        O  0.56756490  0.89853852  0.12912127    -0.75000
O166        O  0.62009526  0.92760680  0.18195110    -0.80600
O167        O  0.59808980  0.97115832  0.13499714    -0.78800
O168        O  0.66104125  0.94187774  0.12762119    -1.15000
O169        O  0.65050618  0.99207921  0.08645084    -0.74200
C170        C  0.67579685  0.98811515  0.06717995     0.96500
C171        C  0.69307744  0.88054655  0.15945814     0.92900
Al172      Al  0.61654019  0.89326664  0.14628287     1.55600
O173        O  0.75461511  0.99132832  0.12619036    -0.78800
C174        C  0.56336607  0.93305863  0.13133166     0.97100
C175        C  0.62655763  0.85535259  0.08978097     0.92000
O176        O  0.66468479  0.88931267  0.08470473    -0.84100
O177        O  0.02449007  0.70434503  0.24085001    -0.83600
C178        C  0.03184176  0.65376578  0.35572169     0.95800
O179        O  0.00113693  0.64655418  0.33658126    -0.72700
O180        O  0.96558161  0.66467604  0.28896795    -0.76300
Al181      Al  0.00596733  0.64194813  0.29449634     1.49000
C182        C  0.96915281  0.70314909  0.29095297     0.91000
O183        O  0.09658330  0.78724213  0.30295387    -0.82500
O184        O  0.14900974  0.73127949  0.28068095    -0.76100
Al185      Al  0.05985729  0.74130693  0.27398964     1.90100
O186        O  0.12113760  0.75329174  0.33301369    -0.75100
O187        O  0.10238143  0.64528184  0.29520503    -0.75000
O188        O  0.07277631  0.66817641  0.34779702    -0.80600
O189        O  0.02961400  0.60302065  0.30034853    -0.78800
O190        O  0.05805193  0.69469567  0.29384558    -1.15000
O191        O  0.00875701  0.63454992  0.25188831    -0.74200
C192        C  0.01229411  0.66398302  0.23290930     0.96500
C193        C  0.11843070  0.78769938  0.32609061     0.92900
Al194      Al  0.10700061  0.69922583  0.31254643     1.55600
O195        O  0.00787390  0.73792597  0.29314784    -0.78800
C196        C  0.06773234  0.60652784  0.29659446     0.97100
C197        C  0.14435103  0.74756086  0.25632871     0.92000
O198        O  0.11004546  0.75132633  0.25131953    -0.84100
O199        O  0.28804706  0.96921663  0.17859102    -0.83600
C200        C  0.34641138  0.96802135  0.06506529     0.95800
O201        O  0.35406287  0.99831000  0.08467738    -0.72700
O202        O  0.33168489  0.03136088  0.13173368    -0.76300
Al203      Al  0.35525869  0.99174187  0.12709115     1.49000
C204        C  0.29338161  0.02786066  0.12847372     0.91000
O205        O  0.21093482  0.90174877  0.11393708    -0.82500
O206        O  0.26803176  0.84893908  0.13823986    -0.76100
Al207      Al  0.25420040  0.93628210  0.14425520     1.90100
O208        O  0.24559720  0.87593020  0.08573826    -0.75100
O209        O  0.35354958  0.89624414  0.12432241    -0.75000
O210        O  0.33105027  0.92676316  0.07233663    -0.80600
O211        O  0.39547330  0.96930518  0.12283367    -0.78800
O212        O  0.30260051  0.93937773  0.12581182    -1.15000
O213        O  0.35895756  0.98674489  0.16994714    -0.74200
C214        C  0.32704368  0.97890398  0.18812622     0.96500
C215        C  0.21125155  0.87945398  0.09141473     0.92900
Al216      Al  0.29974908  0.89135887  0.10681866     1.55600
O217        O  0.25866641  0.98922937  0.12579797    -0.78800
C218        C  0.39207100  0.93113030  0.12533548     0.97100
C219        C  0.24872349  0.85175299  0.16165908     0.92000
O220        O  0.24236944  0.88460746  0.16612361    -0.84100
O221        O  0.72102244  0.68760790  0.15710228    -0.83600
C222        C  0.66799809  0.62715804  0.27138153     0.95800
O223        O  0.66058180  0.65041450  0.25225028    -0.72700
O224        O  0.68093013  0.70610519  0.20557988    -0.76300
Al225      Al  0.65727651  0.64252650  0.21000718     1.49000
C226        C  0.71963956  0.74084931  0.20761851     0.91000
O227        O  0.80258621  0.69577348  0.21911965    -0.82500
O228        O  0.74616070  0.58832430  0.19626599    -0.76100
Al229      Al  0.75710156  0.68773960  0.19019269     1.90100
O230        O  0.76806020  0.63734095  0.24899406    -0.75100
O231        O  0.66048703  0.54930263  0.21058054    -0.75000
O232        O  0.68281344  0.60097151  0.26346546    -0.80600
O233        O  0.61784313  0.57968004  0.21444210    -0.78800
O234        O  0.70995862  0.64287649  0.20966988    -1.15000
O235        O  0.65083682  0.63385367  0.16726646    -0.74200
C236        C  0.68071460  0.66011572  0.14871585     0.96500
C237        C  0.80273787  0.67420039  0.24216595     0.92900
Al238      Al  0.71408314  0.59809729  0.22819139     1.55600
O239        O  0.75425382  0.73649293  0.20973291    -0.78800
C240        C  0.62172329  0.54525979  0.21081875     0.97100
C241        C  0.76240631  0.60929433  0.17196203     0.92000
O242        O  0.76645968  0.64745729  0.16713298    -0.84100
O243        O  0.98891043  0.69026154  0.09518096    -0.83600
C244        C  0.98553203  0.63035782  0.48163856     0.95800
O245        O  0.01573703  0.65366736  0.50113096    -0.72700
O246        O  0.04868820  0.70797203  0.04852254    -0.76300
Al247      Al  0.00904441  0.64497465  0.04336302     1.49000
C248        C  0.04492531  0.74252415  0.04472393     0.91000
O249        O  0.91729231  0.69852065  0.03199621    -0.82500
O250        O  0.86576187  0.59194319  0.05392966    -0.76100
Al251      Al  0.95407236  0.69048811  0.06144294     1.90100
O252        O  0.89528155  0.64088565  0.00146095    -0.75100
O253        O  0.91267703  0.55242188  0.04167368    -0.75000
O254        O  0.94440583  0.60388336  0.48904393    -0.80600
O255        O  0.98567214  0.58246939  0.03823245    -0.78800
O256        O  0.95687826  0.64567385  0.04239982    -1.15000
O257        O  0.00395507  0.63530951  0.08617623    -0.74200
C258        C  0.99726344  0.65996917  0.10457713     0.96500
C259        C  0.89658492  0.67734613  0.00851343     0.92900
Al260      Al  0.90879610  0.60127107  0.02317680     1.55600
O261        O  0.00614605  0.73846605  0.04195197    -0.78800
C262        C  0.94732555  0.54819835  0.04174155     0.97100
C263        C  0.86960579  0.61235062  0.07839391     0.92000
O264        O  0.90369501  0.65025906  0.08408452    -0.84100
C265        C  0.76561902  0.59157880  0.11862658    -0.15100
C266        C  0.77900668  0.59115212  0.14851166     0.07000
C267        C  0.81700639  0.58656788  0.15435531    -0.15100
C268        C  0.84464812  0.58833745  0.13056426    -0.15100
C269        C  0.83365269  0.59347172  0.10089012     0.07000
C270        C  0.79268361  0.59229229  0.09482715    -0.15100
H271        H  0.73670623  0.59590674  0.11385540     0.11000
H272        H  0.82823627  0.58717210  0.17727063     0.11000
H273        H  0.87664213  0.58989398  0.13548635     0.11000
H274        H  0.78433494  0.59717134  0.07211007     0.11000
C275        C  0.16896262  0.82511518  0.04969591    -0.15100
C276        C  0.16970696  0.85382324  0.07276143     0.07000
C277        C  0.12876544  0.85216058  0.08065714    -0.15100
C278        C  0.08742192  0.81909851  0.06808391    -0.15100
C279        C  0.08649820  0.78707279  0.04771523     0.07000
C280        C  0.12774279  0.79187165  0.03748109    -0.15100
H281        H  0.19984033  0.82571643  0.04283369     0.11000
H282        H  0.12820340  0.87393452  0.09825027     0.11000
H283        H  0.05599406  0.81553947  0.07671413     0.11000
H284        H  0.12780847  0.76729818  0.02196090     0.11000
C285        C  0.24816391  0.82770319  0.21410809    -0.15100
C286        C  0.23169659  0.81620899  0.18449513     0.07000
C287        C  0.19121483  0.77574983  0.17892030    -0.15100
C288        C  0.16474972  0.74977858  0.20299974    -0.15100
C289        C  0.17895991  0.76371995  0.23276268     0.07000
C290        C  0.22204136  0.80120181  0.23823255    -0.15100
H291        H  0.27907226  0.85940505  0.21868492     0.11000
H292        H  0.17764302  0.76703954  0.15627525     0.11000
H293        H  0.13119698  0.72124690  0.19848505     0.11000
H294        H  0.23306705  0.81290064  0.26103696     0.11000
C295        C  0.97441805  0.62334044  0.39697930    -0.15100
C296        C  0.02005434  0.64559124  0.38791717     0.07000
C297        C  0.05440499  0.66126252  0.40995548    -0.15100
C298        C  0.04331362  0.65586851  0.44049417    -0.15100
C299        C  0.99767940  0.63423129  0.44951820     0.07000
C300        C  0.96333707  0.61754995  0.42746266    -0.15100
H301        H  0.94722494  0.61076352  0.38051369     0.11000
H302        H  0.08992191  0.67859140  0.40362217     0.11000
H303        H  0.07043331  0.66893353  0.45702480     0.11000
H304        H  0.92780987  0.60087548  0.43374674     0.11000
C305        C  0.97461369  0.66740618  0.18658814    -0.15100
C306        C  0.00169654  0.65275029  0.20088030     0.07000
C307        C  0.02444010  0.63574745  0.18342454    -0.15100
C308        C  0.02214276  0.63617291  0.15177374    -0.15100
C309        C  0.99734789  0.65392246  0.13756272     0.07000
C310        C  0.97232889  0.66784490  0.15538862    -0.15100
H311        H  0.95681120  0.68060035  0.19964761     0.11000
H312        H  0.04610642  0.62494255  0.19414331     0.11000
H313        H  0.04136734  0.62485259  0.13853585     0.11000
H314        H  0.95184099  0.68048782  0.14516736     0.11000
C315        C  0.88619416  0.72783547  0.25166555    -0.15100
C316        C  0.84479449  0.68995152  0.26040163     0.07000
C317        C  0.84507805  0.66318011  0.28445696    -0.15100
C318        C  0.88605356  0.67094547  0.29709142    -0.15100
C319        C  0.92764117  0.70611946  0.28639088     0.07000
C320        C  0.92730951  0.73598904  0.26469544    -0.15100
H321        H  0.88717500  0.74921021  0.23330457     0.11000
H322        H  0.81387391  0.63399174  0.29202787     0.11000
H323        H  0.88544498  0.64722356  0.31360502     0.11000
H324        H  0.95898205  0.76282161  0.25564665     0.11000
C325        C  0.47773189  0.88959325  0.12437040    -0.15100
C326        C  0.51833826  0.93026357  0.13054463     0.07000
C327        C  0.51608664  0.96964555  0.13661450    -0.15100
C328        C  0.47485323  0.96896496  0.13578462    -0.15100
C329        C  0.43433426  0.92890675  0.12881229     0.07000
C330        C  0.43594900  0.88892069  0.12350653    -0.15100
H331        H  0.47837045  0.85862416  0.11984297     0.11000
H332        H  0.54643983  0.00147130  0.14189962     0.11000
H333        H  0.47490154  0.00031172  0.14027810     0.11000
H334        H  0.40522713  0.85757244  0.11799542     0.11000
C335        C  0.74690750  0.85059898  0.16979061    -0.15100
C336        C  0.70836792  0.85366842  0.17765404     0.07000
C337        C  0.68022774  0.82548752  0.20085417    -0.15100
C338        C  0.68720271  0.79171276  0.21327850    -0.15100
C339        C  0.72300498  0.78566988  0.20333668     0.07000
C340        C  0.75432337  0.81702008  0.18270290    -0.15100
H341        H  0.76946047  0.87190858  0.15219536     0.11000
H342        H  0.65050943  0.82704179  0.20785533     0.11000
H343        H  0.66242667  0.76794265  0.22900944     0.11000
H344        H  0.78187901  0.81273996  0.17431171     0.11000
C345        C  0.63314426  0.96242724  0.27484270    -0.15100
C346        C  0.66110203  0.00824686  0.28283659     0.07000
C347        C  0.68218611  0.04061594  0.25996206    -0.15100
C348        C  0.67680439  0.02755130  0.22991019    -0.15100
C349        C  0.65008916  0.98173718  0.22180807     0.07000
C350        C  0.62764161  0.94926029  0.24450871    -0.15100
H351        H  0.61647844  0.93674796  0.29199383     0.11000
H352        H  0.70376745  0.07626640  0.26525435     0.11000
H353        H  0.69421523  0.05349124  0.21301602     0.11000
H354        H  0.60662232  0.91365834  0.23888605     0.11000
C355        C  0.71894880  0.04622412  0.49360028    -0.15100
C356        C  0.68840575  0.01325521  0.47325188     0.07000
C357        C  0.64961326  0.97490853  0.48456234    -0.15100
C358        C  0.64309841  0.96845763  0.01569080    -0.15100
C359        C  0.67525477  0.00018547  0.03570723     0.07000
C360        C  0.71258185  0.03952135  0.02453591    -0.15100
H361        H  0.74889579  0.07644564  0.48567280     0.11000
H362        H  0.62542645  0.94909841  0.46945543     0.11000
H363        H  0.61436806  0.93766717  0.02413174     0.11000
H364        H  0.73802672  0.06393803  0.03977533     0.11000
C365        C  0.90392766  0.42086242  0.04389853    -0.15100
C366        C  0.94524660  0.42079652  0.04635990     0.07000
C367        C  0.98585201  0.46247750  0.04888307    -0.15100
C368        C  0.98562522  0.50310937  0.04831284    -0.15100
C369        C  0.94481553  0.50370102  0.04504296     0.07000
C370        C  0.90370924  0.46216196  0.04323963    -0.15100
H371        H  0.87203718  0.38919205  0.04225479     0.11000
H372        H  0.01832051  0.46395688  0.05115727     0.11000
H373        H  0.01795097  0.53433570  0.05003117     0.11000
H374        H  0.87175271  0.46165901  0.04072038     0.11000
C375        C  0.85761858  0.23949111  0.45002397    -0.15100
C376        C  0.83987758  0.22626327  0.47912676     0.07000
C377        C  0.79410482  0.19314527  0.48279752    -0.15100
C378        C  0.76793721  0.16995026  0.45754639    -0.15100
C379        C  0.78752512  0.17994938  0.42873248     0.07000
C380        C  0.83166247  0.21636606  0.42498849    -0.15100
H381        H  0.89306499  0.26484056  0.44684575     0.11000
H382        H  0.78020548  0.18195874  0.50510489     0.11000
H383        H  0.73432176  0.14090475  0.46083840     0.11000
H384        H  0.84761227  0.22371178  0.40303753     0.11000
C385        C  0.83064630  0.07099843  0.09462116    -0.15100
C386        C  0.80312270  0.07115432  0.11817109     0.07000
C387        C  0.81155076  0.11292897  0.12998532    -0.15100
C388        C  0.84445659  0.15370557  0.11713436    -0.15100
C389        C  0.86916003  0.15368548  0.09172491     0.07000
C390        C  0.86331709  0.11193626  0.08141759    -0.15100
H391        H  0.82395331  0.03920799  0.08455529     0.11000
H392        H  0.79032901  0.11393709  0.14780605     0.11000
H393        H  0.84824761  0.18517344  0.12585611     0.11000
H394        H  0.88162180  0.11067049  0.06185300     0.11000
C395        C  0.67930832  0.61660602  0.32585834    -0.15100
C396        C  0.65991042  0.63107781  0.30359698     0.07000
C397        C  0.63436910  0.65121026  0.31240762    -0.15100
C398        C  0.62909739  0.65766494  0.34282179    -0.15100
C399        C  0.64960748  0.64449253  0.36511685     0.07000
C400        C  0.67438571  0.62345292  0.35633744    -0.15100
H401        H  0.69932643  0.60109968  0.31970220     0.11000
H402        H  0.61881439  0.66244762  0.29575247     0.11000
H403        H  0.60967833  0.67387239  0.34881821     0.11000
H404        H  0.69047215  0.61281361  0.37298948     0.11000
C405        C  0.68776584  0.70564618  0.07144577    -0.15100
C406        C  0.67023302  0.66636496  0.05346624     0.07000
C407        C  0.64957907  0.62366350  0.06754657    -0.15100
C408        C  0.64960177  0.62080466  0.09916341    -0.15100
C409        C  0.67010332  0.66060999  0.11670264     0.07000
C410        C  0.68788937  0.70279128  0.10258348    -0.15100
H411        H  0.70271222  0.73906041  0.06141202     0.11000
H412        H  0.63539108  0.59289621  0.05421072     0.11000
H413        H  0.63619313  0.58792585  0.10975934     0.11000
H414        H  0.70366806  0.73385307  0.11570770     0.11000
C415        C  0.67973039  0.83609482  0.38624021    -0.15100
C416        C  0.70785675  0.83381880  0.40863173     0.07000
C417        C  0.74664715  0.87433401  0.41770874    -0.15100
C418        C  0.75455989  0.91637537  0.40681101    -0.15100
C419        C  0.72376183  0.91876034  0.38668927     0.07000
C420        C  0.68756479  0.87801710  0.37542602    -0.15100
H421        H  0.64970324  0.80562246  0.37855072     0.11000
H422        H  0.76921265  0.87383291  0.43475954     0.11000
H423        H  0.78288746  0.94708068  0.41589261     0.11000
H424        H  0.66326937  0.87851621  0.35983959     0.11000
C425        C  0.60550411  0.80646397  0.01259773    -0.15100
C426        C  0.60862529  0.76762298  0.01810306     0.07000
C427        C  0.60646273  0.75258020  0.04782154    -0.15100
C428        C  0.60568749  0.77853913  0.07196498    -0.15100
C429        C  0.60803428  0.82016205  0.06648859     0.07000
C430        C  0.60568837  0.83288722  0.03674732    -0.15100
H431        H  0.60820338  0.81905324  0.48987330     0.11000
H432        H  0.60967698  0.72300512  0.05237257     0.11000
H433        H  0.60860358  0.76878305  0.09469953     0.11000
H434        H  0.60839340  0.86539880  0.03219713     0.11000
C435        C  0.80821467  0.67293364  0.45465197    -0.15100
C436        C  0.80301650  0.70916142  0.46487695     0.07000
C437        C  0.83476814  0.74003732  0.98556678    -0.15100
C438        C  0.86793155  0.73185733  0.99828604    -0.15100
C439        C  0.87019201  0.69296906  0.99018784     0.07000
C440        C  0.84163352  0.66514671  0.46694073    -0.15100
H441        H  0.78396428  0.64843063  0.43889393     0.11000
H442        H  0.83103231  0.76779363  0.99420932     0.11000
H443        H  0.88954326  0.75413062  0.01598406     0.11000
H444        H  0.84256168  0.63512678  0.45988504     0.11000
C445        C  0.49779704  0.45931397  0.20146418    -0.15100
C446        C  0.49616715  0.41793751  0.20727164     0.07000
C447        C  0.53716271  0.41812170  0.21247294    -0.15100
C448        C  0.57877991  0.45931918  0.21269297    -0.15100
C449        C  0.57974505  0.50066551  0.20768102     0.07000
C450        C  0.53882951  0.49989688  0.20160089    -0.15100
H451        H  0.46711526  0.46055590  0.19683806     0.11000
H452        H  0.53696306  0.38667138  0.21673173     0.11000
H453        H  0.60986905  0.45898389  0.21752474     0.11000
H454        H  0.53832175  0.53100399  0.19732163     0.11000
C455        C  0.26738401  0.11193855  0.16441350    -0.15100
C456        C  0.30663229  0.15286350  0.15661166     0.07000
C457        C  0.33472521  0.15203898  0.13368753    -0.15100
C458        C  0.32690726  0.11083411  0.12154397    -0.15100
C459        C  0.29050992  0.06959190  0.13169716     0.07000
C460        C  0.25927343  0.07058506  0.15192209    -0.15100
H461        H  0.24489433  0.11141278  0.18185062     0.11000
H462        H  0.36494473  0.18288658  0.12683169     0.11000
H463        H  0.35158718  0.11092878  0.10607285     0.11000
H464        H  0.23134285  0.03921233  0.16045692     0.11000
C465        C  0.53693734  0.09326925  0.37056222    -0.15100
C466        C  0.49775748  0.05514049  0.38164063     0.07000
C467        C  0.50161863  0.01876944  0.39329468    -0.15100
C468        C  0.54307380  0.01961141  0.39302296    -0.15100
C469        C  0.58195525  0.05669844  0.38080765     0.07000
C470        C  0.57863727  0.09387304  0.36991713    -0.15100
H471        H  0.53505585  0.12191764  0.36166938     0.11000
H472        H  0.47227426  0.98916579  0.40249443     0.11000
H473        H  0.54427421  0.99044322  0.40162879     0.11000
H474        H  0.60804745  0.12301786  0.36038195     0.11000
C475        C  0.40589337  0.20525413  0.32369290    -0.15100
C476        C  0.40677272  0.16520063  0.31800028     0.07000
C477        C  0.41180551  0.15411620  0.28832729    -0.15100
C478        C  0.41142644  0.18037250  0.26429538    -0.15100
C479        C  0.40503806  0.21730570  0.26983972     0.07000
C480        C  0.40460679  0.23099266  0.29963369    -0.15100
H481        H  0.40089986  0.21366330  0.34635700     0.11000
H482        H  0.41156230  0.12269340  0.28360657     0.11000
H483        H  0.41091935  0.16891265  0.24147837     0.11000
H484        H  0.39913948  0.25924791  0.30419286     0.11000
C485        C  0.18114759  0.91233701  0.34840251    -0.15100
C486        C  0.21207793  0.91273060  0.36964660     0.07000
C487        C  0.20581139  0.87122569  0.38037030    -0.15100
C488        C  0.17221725  0.83026924  0.36807395    -0.15100
C489        C  0.14457842  0.82983064  0.34428395     0.07000
C490        C  0.14774572  0.87115701  0.33566767    -0.15100
H491        H  0.18571635  0.94394662  0.33942239     0.11000
H492        H  0.22935532  0.87062473  0.39659795     0.11000
H493        H  0.17046525  0.79915966  0.37561045     0.11000
H494        H  0.12681535  0.87202151  0.31756473     0.11000
C495        C  0.29706415  0.95869198  0.27017726    -0.15100
C496        C  0.33914647  0.98496519  0.28429325     0.07000
C497        C  0.37883353  0.00617487  0.26677454    -0.15100
C498        C  0.37581974  0.00333053  0.23517984    -0.15100
C499        C  0.33308241  0.97944902  0.22110018     0.07000
C500        C  0.29405638  0.95578260  0.23902163    -0.15100
H501        H  0.26610238  0.94199987  0.28332413     0.11000
H502        H  0.41157220  0.02711958  0.27737722     0.11000
H503        H  0.40640341  0.02140590  0.22185230     0.11000
H504        H  0.26070986  0.93591851  0.22892788     0.11000
C505        C  0.34325504  0.95698489  0.48028332    -0.15100
C506        C  0.36483037  0.00254786  0.47125188     0.07000
C507        C  0.38193521  0.03685660  0.49331193    -0.15100
C508        C  0.37660185  0.02578594  0.02384372    -0.15100
C509        C  0.35446970  0.98020505  0.03289296     0.07000
C510        C  0.33832678  0.94592394  0.01079471    -0.15100
H511        H  0.32991206  0.92986345  0.46377651     0.11000
H512        H  0.39862427  0.07232567  0.48698964     0.11000
H513        H  0.38940747  0.05289205  0.04034523     0.11000
H514        H  0.32097601  0.91041129  0.01705513     0.11000
C515        C  0.11104133  0.56366447  0.29232870    -0.15100
C516        C  0.06991717  0.56408938  0.29458032     0.07000
C517        C  0.02900679  0.52245232  0.29588216    -0.15100
C518        C  0.02883642  0.48158808  0.29499575    -0.15100
C519        C  0.06955048  0.48064104  0.29271311     0.07000
C520        C  0.11086053  0.52213547  0.29139213    -0.15100
H521        H  0.14312132  0.59522857  0.29138514     0.11000
H522        H  0.99659052  0.52117801  0.29768149     0.11000
H523        H  0.99633382  0.45048062  0.29602966     0.11000
H524        H  0.14277491  0.52244404  0.28941969     0.11000
C525        C  0.17991211  0.24397781  0.23557700    -0.15100
C526        C  0.21120524  0.27467282  0.21474312     0.07000
C527        C  0.20545748  0.31036997  0.20421390    -0.15100
C528        C  0.17196889  0.31798888  0.21642196    -0.15100
C529        C  0.14410962  0.29061369  0.23993774     0.07000
C530        C  0.14671921  0.25202332  0.24823362    -0.15100
H531        H  0.18413268  0.21662852  0.24441329     0.11000
H532        H  0.22938398  0.33466549  0.18832547     0.11000
H533        H  0.17061228  0.34769269  0.20919051     0.11000
H534        H  0.12555624  0.23007460  0.26611566     0.11000
C535        C  0.99633120  0.35076874  0.40177276    -0.15100
C536        C  0.02010379  0.33179764  0.38773956     0.07000
C537        C  0.04408167  0.31674082  0.40569118    -0.15100
C538        C  0.04135863  0.31691738  0.43682302    -0.15100
C539        C  0.01508130  0.33266116  0.45091041     0.07000
C540        C  0.99373741  0.35109041  0.43338250    -0.15100
H541        H  0.97804940  0.36308864  0.38842374     0.11000
H542        H  0.06390784  0.30323042  0.39563630     0.11000
H543        H  0.05813419  0.30267990  0.44996617     0.11000
H544        H  0.97278878  0.36284730  0.44397970     0.11000
C545        C  0.05027052  0.36127218  0.17761645    -0.15100
C546        C  0.01596071  0.34634217  0.19950860     0.07000
C547        C  0.97041380  0.32600594  0.19027657    -0.15100
C548        C  0.95946752  0.32096717  0.15964385    -0.15100
C549        C  0.99387005  0.33571361  0.13777323     0.07000
C550        C  0.03934816  0.35588033  0.14710294    -0.15100
H551        H  0.08569943  0.37660883  0.18406202     0.11000
H552        H  0.94333095  0.31411301  0.20669674     0.11000
H553        H  0.92404018  0.30502280  0.15310384     0.11000
H554        H  0.06658694  0.36739320  0.13082465     0.11000
C555        C  0.88883930  0.19024732  0.28769953    -0.15100
C556        C  0.93010186  0.19562606  0.29843360     0.07000
C557        C  0.92920001  0.16301701  0.31830423    -0.15100
C558        C  0.88769277  0.12912430  0.33024083    -0.15100
C559        C  0.84684786  0.12762637  0.32230030     0.07000
C560        C  0.84764367  0.15644593  0.29936947    -0.15100
H561        H  0.88864609  0.21486552  0.27234169     0.11000
H562        H  0.96063815  0.16675196  0.32714768     0.11000
H563        H  0.88808084  0.10727767  0.34780035     0.11000
H564        H  0.81663268  0.15557528  0.29238144     0.11000
C565        C  0.43563012  0.52302993  0.45477975    -0.15100
C566        C  0.43597621  0.48264905  0.46128937     0.07000
C567        C  0.47777588  0.48518230  0.46729003    -0.15100
C568        C  0.51814117  0.52643221  0.46641163    -0.15100
C569        C  0.51836494  0.56680207  0.45941826     0.07000
C570        C  0.47663056  0.56489860  0.45382462    -0.15100
H571        H  0.40389207  0.52215707  0.45017326     0.11000
H572        H  0.47951688  0.45504291  0.47273914     0.11000
H573        H  0.54950661  0.52651499  0.47104919     0.11000
H574        H  0.47580206  0.59545241  0.44817758     0.11000
C575        C  0.17003751  0.32044873  0.53356069    -0.15100
C576        C  0.16993637  0.29306884  0.50972768     0.07000
C577        C  0.12827380  0.25519112  0.00115865    -0.15100
C578        C  0.08735458  0.24761729  0.01418575    -0.15100
C579        C  0.08747644  0.27808682  0.03567445     0.07000
C580        C  0.12931827  0.31332083  0.54612617    -0.15100
H581        H  0.20141028  0.34964743  0.54103374     0.11000
H582        H  0.12696065  0.23332005  0.98298817     0.11000
H583        H  0.05548516  0.22066154  0.00533710     0.11000
H584        H  0.13034856  0.33749812  0.56246980     0.11000
C585        C  0.20144953  0.39941706  0.40353844    -0.15100
C586        C  0.23770796  0.39194445  0.39780759     0.07000
C587        C  0.25027216  0.39020508  0.36792496    -0.15100
C588        C  0.22392206  0.39103609  0.34406239    -0.15100
C589        C  0.18435114  0.39272002  0.35000745     0.07000
C590        C  0.17446693  0.39918543  0.37967780    -0.15100
H591        H  0.19084533  0.39995808  0.42642193     0.11000
H592        H  0.27792221  0.38382351  0.36319097     0.11000
H593        H  0.23137818  0.38497965  0.32140295     0.11000
H594        H  0.14338741  0.39957585  0.38460386     0.11000
C595        C  0.33463955  0.36520036  0.07621098    -0.15100
C596        C  0.35353908  0.34986921  0.05418111     0.07000
C597        C  0.37815706  0.32886644  0.06329683    -0.15100
C598        C  0.38353883  0.32301729  0.09380312    -0.15100
C599        C  0.36403596  0.33765507  0.11586128     0.07000
C600        C  0.33966205  0.35896275  0.10676131    -0.15100
H601        H  0.31518411  0.38122623  0.06982738     0.11000
H602        H  0.39312518  0.31674281  0.04682952     0.11000
H603        H  0.40238488  0.30630604  0.10007324     0.11000
H604        H  0.32419416  0.37053677  0.12323071     0.11000
C605        C  0.36587037  0.36249020  0.34985278    -0.15100
C606        C  0.34498901  0.32254796  0.36712559     0.07000
C607        C  0.32578809  0.28041696  0.35266203    -0.15100
C608        C  0.32505811  0.27778259  0.32152976    -0.15100
C609        C  0.34343327  0.31726999  0.30383622     0.07000
C610        C  0.36522401  0.35985964  0.31820347    -0.15100
H611        H  0.38020255  0.39534052  0.36070118     0.11000
H612        H  0.30954716  0.24921300  0.36554722     0.11000
H613        H  0.30907778  0.24438128  0.31130699     0.11000
H614        H  0.37998970  0.39077319  0.30507943     0.11000
C615        C  0.26926407  0.13399404  0.41805930    -0.15100
C616        C  0.30616640  0.12905709  0.42744547     0.07000
C617        C  0.33269538  0.15543553  0.45189770    -0.15100
C618        C  0.32590477  0.18938037  0.46427511    -0.15100
C619        C  0.29172376  0.19707332  0.45306919     0.07000
C620        C  0.26193663  0.16757883  0.43093454    -0.15100
H621        H  0.24812680  0.11423451  0.39935762     0.11000
H622        H  0.36116579  0.15240251  0.45996681     0.11000
H623        H  0.34960336  0.21194048  0.48108125     0.11000
H624        H  0.23589220  0.17342843  0.42147214     0.11000
O625        O  0.29482021  0.29483408  0.90758040    -0.83600
C626        C  0.34623974  0.35431611  0.52189083     0.95800
O627        O  0.35410829  0.33138105  0.50272811    -0.72700
O628        O  0.33445846  0.27650779  0.95552989    -0.76300
Al629      Al  0.35809583  0.34007372  0.96057667     1.49000
C630        C  0.29565568  0.24195015  0.95775880     0.91000
O631        O  0.21222109  0.28677087  0.96859252    -0.82500
O632        O  0.26948456  0.39423644  0.94607534    -0.76100
Al633      Al  0.25835908  0.29484234  0.94019693     1.90100
O634        O  0.24687693  0.34500142  0.99873129    -0.75100
O635        O  0.35507007  0.43322803  0.96123974    -0.75000
O636        O  0.33177752  0.38080828  0.51393019    -0.80600
O637        O  0.39766929  0.40300642  0.96599582    -0.78800
O638        O  0.30536329  0.33965503  0.95993518    -1.15000
O639        O  0.36478218  0.34939860  0.91785129    -0.74200
C640        C  0.33491218  0.32285831  0.89922541     0.96500
C641        C  0.21204077  0.30834055  0.99166865     0.92900
Al642      Al  0.30110236  0.38426235  0.97838347     1.55600
O643        O  0.26120218  0.24651726  0.96013619    -0.78800
C644        C  0.39392687  0.43756626  0.96263348     0.97100
C645        C  0.25360147  0.37340521  0.92156967     0.92000
O646        O  0.24941765  0.33513854  0.91678150    -0.84100
O647        O  0.02909235  0.29555285  0.84563397    -0.83600
C648        C  0.02834948  0.35137773  0.73165836     0.95800
O649        O  0.99851052  0.32867425  0.75138765    -0.72700
O650        O  0.96710336  0.27507941  0.79926164    -0.76300
Al651      Al  0.00613356  0.33842922  0.79362073     1.49000
C652        C  0.97138315  0.24069928  0.79586091     0.91000
O653        O  0.09833113  0.28580539  0.78204858    -0.82500
O654        O  0.15020740  0.39401374  0.80354498    -0.76100
Al655      Al  0.06277062  0.29450985  0.81177035     1.90100
O656        O  0.11997170  0.34322193  0.75155895    -0.75100
O657        O  0.10188581  0.43201463  0.79049768    -0.75000
O658        O  0.06953215  0.37837499  0.73880450    -0.80600
O659        O  0.02869403  0.40106638  0.78805837    -0.78800
O660        O  0.05876480  0.33854935  0.79250567    -1.15000
O661        O  0.01206274  0.34906674  0.83632596    -0.74200
C662        C  0.01996551  0.32539133  0.85482528     0.96500
C663        C  0.11847695  0.30667629  0.75848182     0.92900
Al664      Al  0.10613947  0.38288039  0.77282481     1.55600
O665        O  0.01036983  0.24535691  0.79323763    -0.78800
C666        C  0.06703718  0.43588203  0.79051228     0.97100
C667        C  0.14758291  0.37373300  0.82783990     0.92000
O668        O  0.11399434  0.33560610  0.83365910    -0.84100
O669        O  0.31130610  0.00882820  0.82408327    -0.83600
C670        C  0.36850428  0.01446811  0.93908263     0.95800
O671        O  0.34509659  0.98409393  0.91976503    -0.72700
O672        O  0.29158014  0.94998964  0.87187777    -0.76300
Al673      Al  0.35494605  0.98969996  0.87769013     1.49000
C674        C  0.25684263  0.95402875  0.87386714     0.91000
O675        O  0.30133286  0.08194092  0.88569095    -0.82500
O676        O  0.40831358  0.13320526  0.86531488    -0.76100
Al677      Al  0.31018232  0.04454548  0.85701474     1.90100
O678        O  0.35788781  0.10343442  0.91720901    -0.75100
O679        O  0.44783081  0.08604839  0.87919729    -0.75000
O680        O  0.39511429  0.05537391  0.93137834    -0.80600
O681        O  0.41791015  0.01325018  0.88399678    -0.78800
O682        O  0.35438972  0.04189375  0.87725687    -1.15000
O683        O  0.36537001  0.99293199  0.83512345    -0.74200
C684        C  0.33921092  0.99627617  0.81618729     0.96500
C685        C  0.32179995  0.10242805  0.90945162     0.92900
Al686      Al  0.39831447  0.09022983  0.89655608     1.55600
O687        O  0.26112617  0.99291267  0.87603298    -0.78800
C688        C  0.45244888  0.05171273  0.88126489     0.97100
C689        C  0.38842565  0.12912299  0.84053696     0.92000
O690        O  0.35113094  0.09449987  0.83445831    -0.84100
O691        O  0.30841848  0.27309794  0.76107646    -0.83600
C692        C  0.36807374  0.32931882  0.64804254     0.95800
O693        O  0.34530882  0.33700058  0.66752949    -0.72700
O694        O  0.29064878  0.31604414  0.71498322    -0.76300
Al695      Al  0.35387147  0.33917269  0.70982311     1.49000
C696        C  0.25591062  0.27786163  0.71118332     0.91000
O697        O  0.29935571  0.19464200  0.69731651    -0.82500
O698        O  0.40906291  0.25194203  0.72258106    -0.76100
Al699      Al  0.30782872  0.23853040  0.72720949     1.90100
O700        O  0.36021101  0.22877681  0.66956798    -0.75100
O701        O  0.44741754  0.33712127  0.70779588    -0.75000
O702        O  0.39418511  0.31406359  0.65549003    -0.80600
O703        O  0.41641880  0.37903858  0.70455115    -0.78800
O704        O  0.35338557  0.28644191  0.70889110    -1.15000
O705        O  0.36335187  0.34337134  0.75270161    -0.74200
C706        C  0.33838884  0.31169195  0.77079112     0.96500
C707        C  0.32227300  0.19457522  0.67510279     0.92900
Al708      Al  0.39856514  0.28317669  0.69045179     1.55600
O709        O  0.26000483  0.24332336  0.70785971    -0.78800
C710        C  0.45131618  0.37571704  0.70684049     0.97100
C711        C  0.38662730  0.23324568  0.74603798     0.92000
O712        O  0.34726352  0.22689777  0.74986424    -0.84100
O713        O  0.70564430  0.71074310  0.51098187    -0.83600
C714        C  0.64615033  0.65408579  0.89717456     0.95800
O715        O  0.66857439  0.64638998  0.91693515    -0.72700
O716        O  0.72350462  0.66820410  0.96439066    -0.76300
Al717      Al  0.66021627  0.64498848  0.95924361     1.49000
C718        C  0.75840489  0.70642629  0.96115663     0.91000
O719        O  0.71462497  0.79018418  0.94819210    -0.82500
O720        O  0.60583774  0.73347145  0.97076137    -0.76100
Al721      Al  0.70611261  0.74548489  0.97734002     1.90100
O722        O  0.65575220  0.75619280  0.91846509    -0.75100
O723        O  0.56674740  0.64773960  0.95574171    -0.75000
O724        O  0.62085893  0.67040606  0.90423723    -0.80600
O725        O  0.59764163  0.60551028  0.95428284    -0.78800
O726        O  0.66097439  0.69786552  0.95820207    -1.15000
O727        O  0.65067611  0.64081368  0.50211231    -0.74200
C728        C  0.67550611  0.67223933  0.52045041     0.96500
C729        C  0.69263785  0.79084287  0.92554492     0.92900
Al730      Al  0.61645393  0.70166492  0.93896485     1.55600
O731        O  0.75449628  0.74119502  0.95825089    -0.78800
C732        C  0.56289774  0.60910066  0.95644904     0.97100
C733        C  0.62724355  0.75110298  0.99484450     0.92000
O734        O  0.66591550  0.75614860  0.99973886    -0.84100
O735        O  0.99144673  0.28078848  0.99047199    -0.83600
C736        C  0.98239880  0.32895727  0.60543692     0.95800
O737        O  0.01347099  0.33742607  0.58637175    -0.72700
O738        O  0.04973157  0.31983497  0.53880883    -0.76300
Al739      Al  0.00927928  0.34266916  0.54432383     1.49000
C740        C  0.04607126  0.28127816  0.54050326     0.91000
O741        O  0.91842377  0.19723309  0.55141284    -0.82500
O742        O  0.86694013  0.25530569  0.52839941    -0.76100
Al743      Al  0.95557454  0.24352957  0.52309619     1.90100
O744        O  0.89209779  0.23016180  0.58082988    -0.75100
O745        O  0.91311682  0.33992405  0.54534999    -0.75000
O746        O  0.94144754  0.31447524  0.59734705    -0.80600
O747        O  0.98591190  0.38186721  0.55030367    -0.78800
O748        O  0.95710437  0.28998625  0.54311693    -1.15000
O749        O  0.00696452  0.35050665  0.00176641    -0.74200
C750        C  0.00380434  0.32121783  0.98273978     0.96500
C751        C  0.89543518  0.19610003  0.57399034     0.92900
Al752      Al  0.90780719  0.28525457  0.56138926     1.55600
O753        O  0.00727968  0.24660620  0.54264839    -0.78800
C754        C  0.94775631  0.37852334  0.54716995     0.97100
C755        C  0.87222208  0.23922036  0.50412266     0.92000
O756        O  0.90588296  0.23402947  0.50003840    -0.84100
O757        O  0.73755289  0.04986614  0.93262540    -0.83600
C758        C  0.67114301  0.02294413  0.81459941     0.95800
O759        O  0.65120159  0.99516734  0.83591827    -0.72700
O760        O  0.69140450  0.96206201  0.86869110    -0.76300
Al761      Al  0.66418807  0.99734648  0.87843509     1.49000
C762        C  0.72390394  0.96217246  0.88219796     0.91000
O763        O  0.79896540  0.07095103  0.85814891    -0.82500
O764        O  0.73440941  0.13411713  0.89092921    -0.76100
Al765      Al  0.76580891  0.05936083  0.89503182     1.90100
O766        O  0.77941175  0.12033045  0.84264577    -0.75100
O767        O  0.65702758  0.08390418  0.86250009    -0.75000
O768        O  0.70078378  0.06369043  0.81978892    -0.80600
O769        O  0.62649368  0.02161336  0.88851785    -0.78800
O770        O  0.71540822  0.05056282  0.87616590    -1.15000
O771        O  0.66978244  0.99206229  0.92151572    -0.74200
C772        C  0.69881233  0.01862104  0.94069933     0.96500
C773        C  0.80580477  0.10400058  0.84145224     0.92900
Al774      Al  0.71770508  0.09668809  0.85570177     1.55600
O775        O  0.75381037  0.99808512  0.89446742    -0.78800
C776        C  0.62429235  0.05440096  0.87746544     0.97100
C777        C  0.76979128  0.14426125  0.90588197     0.92000
O778        O  0.79071868  0.12275006  0.90216518    -0.84100
O779        O  0.70328037  0.97466088  0.57439875    -0.83600
C780        C  0.64683778  0.96855675  0.68981386     0.95800
O781        O  0.67080091  0.99870840  0.67063693    -0.72700
O782        O  0.72400395  0.03408788  0.62291470    -0.76300
Al783      Al  0.66087753  0.99423389  0.62877063     1.49000
C784        C  0.75878963  0.03013312  0.62396569     0.91000
O785        O  0.71459903  0.90234773  0.63636552    -0.82500
O786        O  0.60592297  0.85117153  0.61418973    -0.76100
Al787      Al  0.70532171  0.93938156  0.60739306     1.90100
O788        O  0.65624307  0.87849784  0.66644546    -0.75100
O789        O  0.56756455  0.89853694  0.62912394    -0.75000
O790        O  0.62009803  0.92760699  0.68195251    -0.80600
O791        O  0.59808982  0.97115700  0.63499711    -0.78800
O792        O  0.66104180  0.94187620  0.62762240    -1.15000
O793        O  0.65050559  0.99207465  0.58645020    -0.74200
C794        C  0.67579691  0.98811029  0.56717989     0.96500
C795        C  0.69307896  0.88054605  0.65946080     0.92900
Al796      Al  0.61654085  0.89326562  0.64628460     1.55600
O797        O  0.75461585  0.99132876  0.62619136    -0.78800
C798        C  0.56336588  0.93305721  0.63133313     0.97100
C799        C  0.62655858  0.85535039  0.58978352     0.92000
O800        O  0.66468713  0.88930904  0.58470809    -0.84100
O801        O  0.02449373  0.70434451  0.74085067    -0.83600
C802        C  0.03184352  0.65376387  0.85572205     0.95800
O803        O  0.00113888  0.64655260  0.83658156    -0.72700
O804        O  0.96558360  0.66467430  0.78896835    -0.76300
Al805      Al  0.00596945  0.64194681  0.79449676     1.49000
C806        C  0.96915448  0.70314712  0.79095365     0.91000
O807        O  0.09658427  0.78724003  0.80295584    -0.82500
O808        O  0.14901232  0.73127762  0.78068169    -0.76100
Al809      Al  0.05985970  0.74130584  0.77399082     1.90100
O810        O  0.12114052  0.75329007  0.83301451    -0.75100
O811        O  0.10238291  0.64527991  0.79520537    -0.75000
O812        O  0.07277819  0.66817455  0.84779758    -0.80600
O813        O  0.02961548  0.60301933  0.80034905    -0.78800
O814        O  0.05805423  0.69469430  0.79384630    -1.15000
O815        O  0.00875949  0.63454892  0.75188872    -0.74200
C816        C  0.01229734  0.66398242  0.73290982     0.96500
C817        C  0.11843238  0.78769729  0.82609218     0.92900
Al818      Al  0.10700283  0.69922400  0.81254707     1.55600
O819        O  0.00787549  0.73792411  0.79314851    -0.78800
C820        C  0.06773356  0.60652615  0.79659482     0.97100
C821        C  0.14435422  0.74756040  0.75632991     0.92000
O822        O  0.11004893  0.75132660  0.75132115    -0.84100
O823        O  0.28805024  0.96922148  0.67859164    -0.83600
C824        C  0.34641294  0.96802347  0.56506598     0.95800
O825        O  0.35406467  0.99831220  0.58467805    -0.72700
O826        O  0.33168636  0.03136306  0.63173420    -0.76300
Al827      Al  0.35526060  0.99174402  0.62709173     1.49000
C828        C  0.29338280  0.02786227  0.62847371     0.91000
O829        O  0.21093567  0.90174919  0.61393974    -0.82500
O830        O  0.26803161  0.84894095  0.63824038    -0.76100
Al831      Al  0.25420273  0.93628470  0.64425668     1.90100
O832        O  0.24559895  0.87593420  0.58573868    -0.75100
O833        O  0.35355005  0.89624538  0.62432333    -0.75000
O834        O  0.33105191  0.92676535  0.57233741    -0.80600
O835        O  0.39547471  0.96930642  0.62283418    -0.78800
O836        O  0.30260229  0.93938007  0.62581269    -1.15000
O837        O  0.35895975  0.98674684  0.66994752    -0.74200
C838        C  0.32704623  0.97890657  0.68812668     0.96500
C839        C  0.21125269  0.87945626  0.59141639     0.92900
Al840      Al  0.29975007  0.89136112  0.60681935     1.55600
O841        O  0.25866784  0.98923071  0.62579808    -0.78800
C842        C  0.39207178  0.93113123  0.62533623     0.97100
C843        C  0.24872599  0.85175592  0.66166071     0.92000
O844        O  0.24237387  0.88461144  0.66612623    -0.84100
O845        O  0.72102460  0.68760710  0.65710337    -0.83600
C846        C  0.66799582  0.62715444  0.77138166     0.95800
O847        O  0.66058039  0.65041103  0.75225009    -0.72700
O848        O  0.68093108  0.70610271  0.70558036    -0.76300
Al849      Al  0.65727721  0.64252376  0.71000708     1.49000
C850        C  0.71964038  0.74084703  0.70761970     0.91000
O851        O  0.80258721  0.69577038  0.71912096    -0.82500
O852        O  0.74616397  0.58832355  0.69626862    -0.76100
Al853      Al  0.75710277  0.68773743  0.69019394     1.90100
O854        O  0.76805995  0.63733989  0.74899688    -0.75100
O855        O  0.66048918  0.54930021  0.71058143    -0.75000
O856        O  0.68281213  0.60096849  0.76346618    -0.80600
O857        O  0.61784441  0.57967698  0.71444117    -0.78800
O858        O  0.70995952  0.64287426  0.70967087    -1.15000
O859        O  0.65083918  0.63385165  0.66726634    -0.74200
C860        C  0.68071722  0.66011473  0.64871631     0.96500
C861        C  0.80273837  0.67419821  0.74216796     0.92900
Al862      Al  0.71408411  0.59809549  0.72819307     1.55600
O863        O  0.75425485  0.73649085  0.70973432    -0.78800
C864        C  0.62172524  0.54525694  0.71081851     0.97100
C865        C  0.76240861  0.60929255  0.67196417     0.92000
O866        O  0.76646034  0.64745464  0.66713414    -0.84100
O867        O  0.98891593  0.69026410  0.59518184    -0.83600
C868        C  0.98553065  0.63035595  0.98163821     0.95800
O869        O  0.01573495  0.65366616  0.00113084    -0.72700
O870        O  0.04869163  0.70797425  0.54852216    -0.76300
Al871      Al  0.00904760  0.64497644  0.54336327     1.49000
C872        C  0.04492805  0.74252616  0.54472421     0.91000
O873        O  0.91729485  0.69852285  0.53199909    -0.82500
O874        O  0.86576541  0.59194618  0.55393154    -0.76100
Al875      Al  0.95407616  0.69049009  0.56144475     1.90100
O876        O  0.89528483  0.64088916  0.50146284    -0.75100
O877        O  0.91267929  0.55242446  0.54167435    -0.75000
O878        O  0.94440433  0.60388091  0.98904317    -0.80600
O879        O  0.98567442  0.58247074  0.53823331    -0.78800
O880        O  0.95688155  0.64567602  0.54240091    -1.15000
O881        O  0.00395951  0.63531164  0.58617652    -0.74200
C882        C  0.99726828  0.65997120  0.60457770     0.96500
C883        C  0.89658807  0.67734934  0.50851589     0.92900
Al884      Al  0.90879878  0.60127388  0.52317808     1.55600
O885        O  0.00614855  0.73846764  0.54195294    -0.78800
C886        C  0.94732740  0.54820033  0.54174283     0.97100
C887        C  0.86961036  0.61235253  0.57839644     0.92000
O888        O  0.90369996  0.65026065  0.58408720    -0.84100
C889        C  0.76562109  0.59157367  0.61862938    -0.15100
C890        C  0.77901023  0.59115040  0.64851453     0.07000
C891        C  0.81701238  0.58657043  0.65435845    -0.15100
C892        C  0.84465481  0.58834119  0.63056748    -0.15100
C893        C  0.83365783  0.59347271  0.60089316     0.07000
C894        C  0.79268649  0.59228849  0.59483002    -0.15100
H895        H  0.73670627  0.59589829  0.61385794     0.11000
H896        H  0.82824339  0.58717722  0.67727386     0.11000
H897        H  0.87665012  0.58990082  0.63548965     0.11000
H898        H  0.78433636  0.59716505  0.57211281     0.11000
C899        C  0.16896461  0.82512024  0.54969612    -0.15100
C900        C  0.16970802  0.85382570  0.57276318     0.07000
C901        C  0.12876584  0.85216068  0.58066017    -0.15100
C902        C  0.08742275  0.81909866  0.56808643    -0.15100
C903        C  0.08650013  0.78707520  0.54771618     0.07000
C904        C  0.12774518  0.79187650  0.53748095    -0.15100
H905        H  0.19984299  0.82572353  0.54283286     0.11000
H906        H  0.12820306  0.87393254  0.59825439     0.11000
H907        H  0.05599456  0.81553775  0.57671739     0.11000
H908        H  0.12781166  0.76730478  0.52195952     0.11000
C909        C  0.24816665  0.82770497  0.71410966    -0.15100
C910        C  0.23169928  0.81621153  0.68449664     0.07000
C911        C  0.19121796  0.77575201  0.67892156    -0.15100
C912        C  0.16475321  0.74977980  0.70300083    -0.15100
C913        C  0.17896330  0.76372029  0.73276390     0.07000
C914        C  0.22204453  0.80120248  0.73823394    -0.15100
H915        H  0.27907481  0.85940690  0.71868673     0.11000
H916        H  0.17764612  0.76704215  0.65627652     0.11000
H917        H  0.13120051  0.72124791  0.69848594     0.11000
H918        H  0.23307026  0.81290070  0.76103846     0.11000
C919        C  0.97441902  0.62333550  0.89697896    -0.15100
C920        C  0.02005558  0.64558889  0.88791737     0.07000
C921        C  0.05440581  0.66126275  0.90995606    -0.15100
C922        C  0.04331364  0.65586895  0.94049462    -0.15100
C923        C  0.99767904  0.63422920  0.94951808     0.07000
C924        C  0.96333728  0.61754512  0.92746216    -0.15100
H925        H  0.94722622  0.61075652  0.88051299     0.11000
H926        H  0.08992290  0.67859377  0.90362313     0.11000
H927        H  0.07043294  0.66893625  0.95702552     0.11000
H928        H  0.92780974  0.60086857  0.93374579     0.11000
C929        C  0.97461778  0.66740685  0.68658867    -0.15100
C930        C  0.00169991  0.65275011  0.70088076     0.07000
C931        C  0.02444299  0.63574670  0.68342495    -0.15100
C932        C  0.02214602  0.63617284  0.65177412    -0.15100
C933        C  0.99735223  0.65392364  0.63756321     0.07000
C934        C  0.97233355  0.66784641  0.65538919    -0.15100
H935        H  0.95681544  0.68060122  0.69964823     0.11000
H936        H  0.04610845  0.62494099  0.69414361     0.11000
H937        H  0.04137026  0.62485206  0.63853614     0.11000
H938        H  0.95184633  0.68049022  0.64516798     0.11000
C939        C  0.88619479  0.72783326  0.75166743    -0.15100
C940        C  0.84479527  0.68994904  0.76040339     0.07000
C941        C  0.84507928  0.66317720  0.78445834    -0.15100
C942        C  0.88605505  0.67094269  0.79709251    -0.15100
C943        C  0.92764250  0.70611709  0.78639204     0.07000
C944        C  0.92731036  0.73598693  0.76469700    -0.15100
H945        H  0.88717534  0.74920837  0.73330670     0.11000
H946        H  0.81387536  0.63398853  0.79202911     0.11000
H947        H  0.88544678  0.64722048  0.81360586     0.11000
H948        H  0.95898273  0.76281982  0.75564826     0.11000
C949        C  0.47773158  0.88959257  0.62437138    -0.15100
C950        C  0.51833812  0.93026247  0.63054615     0.07000
C951        C  0.51608692  0.96964465  0.63661616    -0.15100
C952        C  0.47485381  0.96896469  0.63578599    -0.15100
C953        C  0.43433468  0.92890694  0.62881318     0.07000
C954        C  0.43594897  0.88892068  0.62350715    -0.15100
H955        H  0.47836980  0.85862341  0.61984370     0.11000
H956        H  0.54644022  0.00147008  0.64190160     0.11000
H957        H  0.47490249  0.00031159  0.64027961     0.11000
H958        H  0.40522698  0.85757281  0.61799556     0.11000
C959        C  0.74691038  0.85060028  0.66979536    -0.15100
C960        C  0.70836883  0.85366743  0.67765694     0.07000
C961        C  0.68022600  0.82548338  0.70085501    -0.15100
C962        C  0.68720071  0.79170821  0.71327891    -0.15100
C963        C  0.72300517  0.78566764  0.70333874     0.07000
C964        C  0.75432579  0.81702071  0.68270721    -0.15100
H965        H  0.76946544  0.87191230  0.65220176     0.11000
H966        H  0.65050603  0.82703556  0.70785468     0.11000
H967        H  0.66242281  0.76793593  0.72900815     0.11000
H968        H  0.78188340  0.81274259  0.67431728     0.11000
C969        C  0.63314583  0.96242905  0.77484307    -0.15100
C970        C  0.66110561  0.00824813  0.78283713     0.07000
C971        C  0.68219214  0.04061698  0.75996268    -0.15100
C972        C  0.67681023  0.02755231  0.72991080    -0.15100
C973        C  0.65009248  0.98173862  0.72180855     0.07000
C974        C  0.62764306  0.94926202  0.74450917    -0.15100
H975        H  0.61647795  0.93674972  0.79199423     0.11000
H976        H  0.70377533  0.07626712  0.76525514     0.11000
H977        H  0.69422303  0.05349209  0.71301656     0.11000
H978        H  0.60662211  0.91366057  0.73888652     0.11000
C979        C  0.71894583  0.04622856  0.99360023    -0.15100
C980        C  0.68840478  0.01325739  0.97325219     0.07000
C981        C  0.64961310  0.97491011  0.98456288    -0.15100
C982        C  0.64309879  0.96845479  0.51569022    -0.15100
C983        C  0.67525642  0.00018082  0.53570694     0.07000
C984        C  0.71258518  0.03951554  0.52453589    -0.15100
H985        H  0.74889214  0.07645063  0.98567249     0.11000
H986        H  0.62542779  0.94909851  0.96945630     0.11000
H987        H  0.61436730  0.93766511  0.52413085     0.11000
H988        H  0.73803117  0.06393072  0.53977550     0.11000
C989        C  0.90392874  0.42086448  0.54389317    -0.15100
C990        C  0.94524665  0.42079814  0.54636193     0.07000
C991        C  0.98585094  0.46247857  0.54889410    -0.15100
C992        C  0.98562431  0.50311057  0.54832415    -0.15100
C993        C  0.94481614  0.50370277  0.54504573     0.07000
C994        C  0.90371056  0.46216410  0.54323466    -0.15100
H995        H  0.87203906  0.38919453  0.54224255     0.11000
H996        H  0.01831828  0.46395741  0.55117486     0.11000
H997        H  0.01794920  0.53433683  0.55004913     0.11000
H998        H  0.87175523  0.46166171  0.54070885     0.11000
C999        C  0.85761840  0.23949065  0.95002637    -0.15100
C1000       C  0.83987776  0.22626124  0.97912910     0.07000
C1001       C  0.79410570  0.19314136  0.98279979    -0.15100
C1002       C  0.76793857  0.16994644  0.95754852    -0.15100
C1003       C  0.78752634  0.17994732  0.92873459     0.07000
C1004       C  0.83166287  0.21636549  0.92499074    -0.15100
H1005       H  0.89306438  0.26484155  0.94684824     0.11000
H1006       H  0.78020671  0.18195355  0.00510712     0.11000
H1007       H  0.73432370  0.14089993  0.96084029     0.11000
H1008       H  0.84761253  0.22371264  0.90303977     0.11000
C1009       C  0.83064408  0.07099883  0.59461928    -0.15100
C1010       C  0.80312150  0.07115456  0.61816992     0.07000
C1011       C  0.81154916  0.11292915  0.62998407    -0.15100
C1012       C  0.84445420  0.15370583  0.61713269    -0.15100
C1013       C  0.86915724  0.15368581  0.59172299     0.07000
C1014       C  0.86331419  0.11193669  0.58141542    -0.15100
H1015       H  0.82395096  0.03920844  0.58455327     0.11000
H1016       H  0.79032792  0.11393711  0.64780512     0.11000
H1017       H  0.84824513  0.18517357  0.62585450     0.11000
H1018       H  0.88161836  0.11067100  0.56185053     0.11000
C1019       C  0.67930128  0.61659925  0.82585861    -0.15100
C1020       C  0.65990645  0.63107369  0.80359682     0.07000
C1021       C  0.63436728  0.65120878  0.81240687    -0.15100
C1022       C  0.62909503  0.65766365  0.84282091    -0.15100
C1023       C  0.64960229  0.64448868  0.86511636     0.07000
C1024       C  0.67437798  0.62344615  0.85633753    -0.15100
H1025       H  0.69931772  0.60109085  0.81970297     0.11000
H1026       H  0.61881504  0.66244840  0.79575134     0.11000
H1027       H  0.60967803  0.67387357  0.84881695     0.11000
H1028       H  0.69046205  0.61280472  0.87298990     0.11000
C1029       C  0.68776763  0.70564754  0.57144706    -0.15100
C1030       C  0.67023760  0.66636713  0.55346691     0.07000
C1031       C  0.64958641  0.62366517  0.56754645    -0.15100
C1032       C  0.64960855  0.62080521  0.59916319    -0.15100
C1033       C  0.67010679  0.66060983  0.61670311     0.07000
C1034       C  0.68789068  0.70279147  0.60258472    -0.15100
H1035       H  0.70271206  0.73906193  0.56141383     0.11000
H1036       H  0.63540105  0.59289866  0.55421014     0.11000
H1037       H  0.63620203  0.58792624  0.60975852     0.11000
H1038       H  0.70366730  0.73385285  0.61570959     0.11000
C1039       C  0.67972963  0.83609384  0.88623981    -0.15100
C1040       C  0.70785508  0.83381674  0.90863154     0.07000
C1041       C  0.74664562  0.87433138  0.91770924    -0.15100
C1042       C  0.75455938  0.91637323  0.90681188    -0.15100
C1043       C  0.72376239  0.91875933  0.88668980     0.07000
C1044       C  0.68756525  0.87801666  0.87542587    -0.15100
H1045       H  0.64970235  0.80562199  0.87854995     0.11000
H1046       H  0.76921029  0.87382938  0.93476023     0.11000
H1047       H  0.78288710  0.94707822  0.91589401     0.11000
H1048       H  0.66327062  0.87851664  0.85983915     0.11000
C1049       C  0.60550389  0.80646315  0.51259998    -0.15100
C1050       C  0.60862699  0.76762300  0.51810458     0.07000
C1051       C  0.60646566  0.75257996  0.54782284    -0.15100
C1052       C  0.60569005  0.77853789  0.57196674    -0.15100
C1053       C  0.60803496  0.82016010  0.56649105     0.07000
C1054       C  0.60568758  0.83288539  0.53675009    -0.15100
H1055       H  0.60820475  0.81905391  0.98987082     0.11000
H1056       H  0.60968129  0.72300535  0.55237334     0.11000
H1057       H  0.60860734  0.76878186  0.59470108     0.11000
H1058       H  0.60839113  0.86539654  0.53220045     0.11000
C1059       C  0.80820972  0.67292900  0.95465034    -0.15100
C1060       C  0.80301175  0.70915694  0.96487533     0.07000
C1061       C  0.83477248  0.74004163  0.48556870    -0.15100
C1062       C  0.86793555  0.73186136  0.49828835    -0.15100
C1063       C  0.87019586  0.69297301  0.49019025     0.07000
C1064       C  0.84162898  0.66514233  0.96693871    -0.15100
H1065       H  0.78395888  0.64842575  0.93889249     0.11000
H1066       H  0.83103650  0.76779778  0.49421114     0.11000
H1067       H  0.88954697  0.75413448  0.51598655     0.11000
H1068       H  0.84255709  0.63512219  0.95988303     0.11000
C1069       C  0.49779983  0.45931116  0.70146084    -0.15100
C1070       C  0.49616902  0.41793494  0.70727098     0.07000
C1071       C  0.53716397  0.41811898  0.71247459    -0.15100
C1072       C  0.57878151  0.45931624  0.71269462    -0.15100
C1073       C  0.57974733  0.50066247  0.70768027     0.07000
C1074       C  0.53883248  0.49989379  0.70159753    -0.15100
H1075       H  0.46711858  0.46055315  0.69683271     0.11000
H1076       H  0.53696363  0.38666856  0.71673546     0.11000
H1077       H  0.60986993  0.45898103  0.71752839     0.11000
H1078       H  0.53832534  0.53100070  0.69731629     0.11000
C1079       C  0.26738269  0.11193898  0.66441238    -0.15100
C1080       C  0.30663096  0.15286407  0.65661090     0.07000
C1081       C  0.33472423  0.15204011  0.63368677    -0.15100
C1082       C  0.32690714  0.11083545  0.62154339    -0.15100
C1083       C  0.29051019  0.06959307  0.63169658     0.07000
C1084       C  0.25927284  0.07058571  0.65192099    -0.15100
H1085       H  0.24489264  0.11141284  0.68184936     0.11000
H1086       H  0.36494357  0.18288783  0.62683110     0.11000
H1087       H  0.35158762  0.11093051  0.60607256     0.11000
H1088       H  0.23134235  0.03921283  0.66045561     0.11000
C1089       C  0.53693830  0.09326780  0.87056315    -0.15100
C1090       C  0.49775820  0.05513860  0.88164095     0.07000
C1091       C  0.50161936  0.01876759  0.89329507    -0.15100
C1092       C  0.54307471  0.01960979  0.89302366    -0.15100
C1093       C  0.58195636  0.05669717  0.88080877     0.07000
C1094       C  0.57863840  0.09387186  0.86991851    -0.15100
H1095       H  0.53505693  0.12191612  0.86167050     0.11000
H1096       H  0.47227484  0.98916375  0.90249457     0.11000
H1097       H  0.54427513  0.99044149  0.90162942     0.11000
H1098       H  0.60804875  0.12301703  0.86038376     0.11000
C1099       C  0.40589187  0.20525182  0.82369308    -0.15100
C1100       C  0.40677351  0.16519954  0.81800004     0.07000
C1101       C  0.41180831  0.15411687  0.78832701    -0.15100
C1102       C  0.41142867  0.18037332  0.76429538    -0.15100
C1103       C  0.40503738  0.21730465  0.76984003     0.07000
C1104       C  0.40460461  0.23099033  0.79963412    -0.15100
H1105       H  0.40089710  0.21365975  0.84635715     0.11000
H1106       H  0.41156707  0.12269518  0.78360597     0.11000
H1107       H  0.41092325  0.16891469  0.74147819     0.11000
H1108       H  0.39913572  0.25924467  0.80419354     0.11000
C1109       C  0.18114655  0.91233454  0.84840462    -0.15100
C1110       C  0.21207822  0.91272904  0.86964795     0.07000
C1111       C  0.20581304  0.87122451  0.88037148    -0.15100
C1112       C  0.17221942  0.83026769  0.86807524    -0.15100
C1113       C  0.14457948  0.82982835  0.84428578     0.07000
C1114       C  0.14774504  0.87115416  0.83567005    -0.15100
H1115       H  0.18571406  0.94394380  0.83942474     0.11000
H1116       H  0.22935788  0.87062428  0.89659861     0.11000
H1117       H  0.17046875  0.79915848  0.87561134     0.11000
H1118       H  0.12681360  0.87201801  0.81756757     0.11000
C1119       C  0.29706602  0.95868639  0.77017705    -0.15100
C1120       C  0.33914761  0.98496252  0.78429330     0.07000
C1121       C  0.37883463  0.00617653  0.76677490    -0.15100
C1122       C  0.37582153  0.00333377  0.73518028    -0.15100
C1123       C  0.33308468  0.97944939  0.72110040     0.07000
C1124       C  0.29405884  0.95577847  0.73902137    -0.15100
H1125       H  0.26610422  0.94199118  0.78332379     0.11000
H1126       H  0.41157288  0.02712392  0.77737800     0.11000
H1127       H  0.40640494  0.02141276  0.72185297     0.11000
H1128       H  0.26071298  0.93591231  0.72892720     0.11000
C1129       C  0.34325609  0.95698311  0.98028270    -0.15100
C1130       C  0.36483088  0.00254611  0.97125136     0.07000
C1131       C  0.38193474  0.03685478  0.99331139    -0.15100
C1132       C  0.37660303  0.02578782  0.52384427    -0.15100
C1133       C  0.35447066  0.98020702  0.53289360     0.07000
C1134       C  0.33832646  0.94592579  0.51079536    -0.15100
H1135       H  0.32991407  0.92986180  0.96377589     0.11000
H1136       H  0.39862347  0.07232386  0.98698909     0.11000
H1137       H  0.38940943  0.05289410  0.54034584     0.11000
H1138       H  0.32097525  0.91041322  0.51705584     0.11000
C1139       C  0.11104104  0.56366211  0.79232569    -0.15100
C1140       C  0.06991747  0.56408742  0.79458055     0.07000
C1141       C  0.02900702  0.52245074  0.79588514    -0.15100
C1142       C  0.02883598  0.48158625  0.79499832    -0.15100
C1143       C  0.06954948  0.48063884  0.79271258     0.07000
C1144       C  0.11085958  0.52213286  0.79138882    -0.15100
H1145       H  0.14312083  0.59522579  0.79137976     0.11000
H1146       H  0.99659114  0.52117685  0.79768698     0.11000
H1147       H  0.99633350  0.45047905  0.79603438     0.11000
H1148       H  0.14277330  0.52244097  0.78941385     0.11000
C1149       C  0.17991377  0.24397901  0.73557753    -0.15100
C1150       C  0.21120664  0.27467427  0.71474360     0.07000
C1151       C  0.20545801  0.31037067  0.70421408    -0.15100
C1152       C  0.17196838  0.31798848  0.71642162    -0.15100
C1153       C  0.14410921  0.29061303  0.73993744     0.07000
C1154       C  0.14672003  0.25202357  0.74823377    -0.15100
H1155       H  0.18413503  0.21663044  0.74441399     0.11000
H1156       H  0.22938449  0.33466649  0.68832557     0.11000
H1157       H  0.17061094  0.34769162  0.70918993     0.11000
H1158       H  0.12555735  0.23007478  0.76611592     0.11000
C1159       C  0.99632712  0.35076508  0.90177276    -0.15100
C1160       C  0.02010314  0.33179755  0.88773962     0.07000
C1161       C  0.04408364  0.31674396  0.90569137    -0.15100
C1162       C  0.04136012  0.31691996  0.93682320    -0.15100
C1163       C  0.01507978  0.33266023  0.95091055     0.07000
C1164       C  0.99373293  0.35108629  0.93338252    -0.15100
H1165       H  0.97804311  0.36308231  0.88842370     0.11000
H1166       H  0.06391237  0.30323630  0.89563644     0.11000
H1167       H  0.05813790  0.30268482  0.94996645     0.11000
H1168       H  0.97278178  0.36284033  0.94397969     0.11000
C1169       C  0.05026703  0.36127155  0.67761605    -0.15100
C1170       C  0.01595724  0.34634027  0.69950829     0.07000
C1171       C  0.97041027  0.32600409  0.69027632    -0.15100
C1172       C  0.95946394  0.32096621  0.65964357    -0.15100
C1173       C  0.99386654  0.33571345  0.63777290     0.07000
C1174       C  0.03934464  0.35588073  0.64710262    -0.15100
H1175       H  0.08569599  0.37660841  0.68406152     0.11000
H1176       H  0.94332740  0.31411038  0.70669659     0.11000
H1177       H  0.92403662  0.30502169  0.65310353     0.11000
H1178       H  0.06658367  0.36739465  0.63082427     0.11000
C1179       C  0.88883967  0.19024417  0.78769978    -0.15100
C1180       C  0.93010246  0.19562421  0.79843453     0.07000
C1181       C  0.92920105  0.16301615  0.81830585    -0.15100
C1182       C  0.88769403  0.12912321  0.83024244    -0.15100
C1183       C  0.84684878  0.12762411  0.82230121     0.07000
C1184       C  0.84764421  0.15644248  0.79936968    -0.15100
H1185       H  0.88864615  0.21486163  0.77234132     0.11000
H1186       H  0.96063949  0.16675216  0.82714989     0.11000
H1187       H  0.88808238  0.10727757  0.84780254     0.11000
H1188       H  0.81663274  0.15557078  0.79238111     0.11000
C1189       C  0.43562608  0.52302931  0.95478048    -0.15100
C1190       C  0.43597273  0.48264836  0.96128881     0.07000
C1191       C  0.47777263  0.48518157  0.96728821    -0.15100
C1192       C  0.51813756  0.52643144  0.96640985    -0.15100
C1193       C  0.51836087  0.56680141  0.95941767     0.07000
C1194       C  0.47662627  0.56489815  0.95382530    -0.15100
H1195       H  0.40388755  0.52215644  0.95017505     0.11000
H1196       H  0.47951410  0.45504198  0.97273630     0.11000
H1197       H  0.54950321  0.52651405  0.97104642     0.11000
H1198       H  0.47579750  0.59545195  0.94817929     0.11000
C1199       C  0.17003705  0.32044448  0.03356080    -0.15100
C1200       C  0.16993503  0.29306617  0.00972647     0.07000
C1201       C  0.12827560  0.25519211  0.50116109    -0.15100
C1202       C  0.08735589  0.24761768  0.51418792    -0.15100
C1203       C  0.08747674  0.27808856  0.53567519     0.07000
C1204       C  0.12931824  0.31331721  0.04612652    -0.15100
H1205       H  0.20141026  0.34964174  0.04103478     0.11000
H1206       H  0.12696298  0.23331957  0.48299163     0.11000
H1207       H  0.05548704  0.22066040  0.50534022     0.11000
H1208       H  0.13034915  0.33749340  0.06247111     0.11000
C1209       C  0.20144893  0.39941799  0.90353724    -0.15100
C1210       C  0.23770692  0.39194459  0.89780657     0.07000
C1211       C  0.25027165  0.39020567  0.86792402    -0.15100
C1212       C  0.22392225  0.39103757  0.84406129    -0.15100
C1213       C  0.18435139  0.39272178  0.85000612     0.07000
C1214       C  0.17446708  0.39918726  0.87967641    -0.15100
H1215       H  0.19084447  0.39995886  0.92642062     0.11000
H1216       H  0.27792143  0.38382368  0.86319018     0.11000
H1217       H  0.23137858  0.38498118  0.82140189     0.11000
H1218       H  0.14338748  0.39957800  0.88460235     0.11000
C1219       C  0.33464046  0.36519914  0.57621111    -0.15100
C1220       C  0.35354018  0.34986806  0.55418134     0.07000
C1221       C  0.37815723  0.32886439  0.56329712    -0.15100
C1222       C  0.38353863  0.32301496  0.59380345    -0.15100
C1223       C  0.36403616  0.33765344  0.61586150     0.07000
C1224       C  0.33966249  0.35896127  0.60676143    -0.15100
H1225       H  0.31518538  0.38122543  0.56982741     0.11000
H1226       H  0.39312520  0.31674049  0.54682987     0.11000
H1227       H  0.40238411  0.30630345  0.60007361     0.11000
H1228       H  0.32419473  0.37053554  0.62323075     0.11000
C1229       C  0.36587217  0.36249061  0.84985270    -0.15100
C1230       C  0.34499051  0.32254839  0.86712548     0.07000
C1231       C  0.32578952  0.28041733  0.85266202    -0.15100
C1232       C  0.32505935  0.27778287  0.82152976    -0.15100
C1233       C  0.34343482  0.31727030  0.80383624     0.07000
C1234       C  0.36522585  0.35985997  0.81820341    -0.15100
H1235       H  0.38020434  0.39534090  0.86070103     0.11000
H1236       H  0.30954832  0.24921340  0.86554725     0.11000
H1237       H  0.30907864  0.24438155  0.81130701     0.11000
H1238       H  0.37999168  0.39077345  0.80507935     0.11000
C1239       C  0.26926516  0.13399355  0.91805726    -0.15100
C1240       C  0.30616790  0.12905720  0.92744339     0.07000
C1241       C  0.33269746  0.15543678  0.95189506    -0.15100
C1242       C  0.32590650  0.18938150  0.96427226    -0.15100
C1243       C  0.29172458  0.19707340  0.95306674     0.07000
C1244       C  0.26193749  0.16757838  0.93093227    -0.15100
H1245       H  0.24812756  0.11423328  0.89935602     0.11000
H1246       H  0.36116835  0.15240445  0.95996406     0.11000
H1247       H  0.34960530  0.21194215  0.98107818     0.11000
H1248       H  0.23589252  0.17342725  0.92147000     0.11000
loop_ 
_geom_bond_atom_site_label_1 
_geom_bond_atom_site_label_2 
_geom_bond_distance 
_geom_bond_site_symmetry_2 
_ccdc_geom_bond_type 
O1           C16   1.268       .  A
O1           Al9   1.908       .  S
C2           O12   1.273       .  A
C2            O3   1.270       .  A
C2          C596   1.476       .  S
O3         Al629   1.891   1_554  S
O4            C6   1.258       .  A
O4           Al5   1.906       .  S
Al5          O13   1.889       .  S
Al5          O15   1.920       .  S
Al5         O627   1.891       .  S
Al5          O14   1.784       .  S
C6           O19   1.260       .  A
C6          C619   1.478       .  S
O7           C17   1.262       .  A
O7           Al9   1.924       .  S
O8           C21   1.262       .  A
O8          Al18   1.921       .  S
Al9          O22   1.863       .  S
Al9          O19   1.912       .  S
Al9          O14   1.790       .  S
O10          C17   1.256       .  A
O10         Al18   1.883       .  S
O11          C20   1.254       .  A
O11         Al18   1.916       .  S
O12        Al642   1.926   1_554  S
O13          C20   1.253       .  A
O14         Al18   1.792       .  S
O15          C16   1.269       .  A
C16         C606   1.469       .  S
C17         C576   1.490       .  S
Al18        O636   1.926       .  S
C20         C566   1.486       .  S
C21          O22   1.254       .  A
C21         C586   1.464       .  S
O23          C38   1.267       .  A
O23         Al31   1.902       .  S
C24          O34   1.271       .  A
C24          O25   1.271   1_455  A
C24         C546   1.474       .  S
O25         Al27   1.900   1_655  S
O26          C28   1.257       .  A
O26         Al27   1.900   1_655  S
Al27         O35   1.886       .  S
Al27         O37   1.922       .  S
Al27         O36   1.786       .  S
C28          O41   1.258   1_655  A
C28         C556   1.477       .  S
O29          C39   1.260       .  A
O29         Al31   1.911       .  S
O30          C43   1.261       .  A
O30         Al40   1.916       .  S
Al31         O44   1.868       .  S
Al31         O41   1.913       .  S
Al31         O36   1.789       .  S
O32          C39   1.257       .  A
O32         Al40   1.888       .  S
O33          C42   1.254       .  A
O33         Al40   1.915       .  S
O34         Al40   1.912       .  S
O35          C42   1.253       .  A
O36         Al40   1.792       .  S
O37          C38   1.270       .  A
C38         C536   1.478       .  S
C39         C529   1.487       .  S
C42         C519   1.484       .  S
C43          O44   1.254       .  A
C43         C589   1.461       .  S
O45          C60   1.268   1_545  A
O45         Al53   1.913       .  S
C46          O56   1.271       .  A
C46          O47   1.269   1_545  A
C46         C506   1.475       .  S
O47         Al49   1.893       .  S
O48          C50   1.257       .  A
O48         Al49   1.902       .  S
Al49         O57   1.892   1_565  S
Al49         O59   1.918       .  S
Al49         O58   1.784   1_565  S
C50          O63   1.259       .  A
C50         C486   1.478       .  S
O51          C61   1.263       .  A
O51         Al53   1.926       .  S
O52          C65   1.261       .  A
O52         Al62   1.920       .  S
Al53         O66   1.864       .  S
Al53         O63   1.913   1_545  S
Al53         O58   1.790       .  S
O54          C61   1.257       .  A
O54         Al62   1.884       .  S
O55          C64   1.257       .  A
O55         Al62   1.920       .  S
O56         Al62   1.920       .  S
O57          C64   1.253       .  A
O58         Al62   1.791       .  S
O59          C60   1.268       .  A
C60         C496   1.468       .  S
C61         C616   1.490       .  S
C64         C466   1.484       .  S
C65          O66   1.254       .  A
C65         C476   1.462       .  S
O67          C82   1.268       .  A
O67         Al75   1.902       .  S
C68          O78   1.274       .  A
C68          O69   1.272       .  A
C68         C599   1.477       .  S
O69         Al71   1.897       .  S
O70          C72   1.255       .  A
O70         Al71   1.897       .  S
Al71         O79   1.879       .  S
Al71         O81   1.925       .  S
Al71         O80   1.785       .  S
C72          O85   1.258       .  A
C72         C526   1.476       .  S
O73          C83   1.259       .  A
O73         Al75   1.908       .  S
O74          C87   1.261       .  A
O74         Al84   1.917       .  S
Al75         O88   1.868       .  S
Al75         O85   1.914       .  S
Al75         O80   1.789       .  S
O76          C83   1.256       .  A
O76         Al84   1.888       .  S
O77          C86   1.252       .  A
O77         Al84   1.914       .  S
O78         Al84   1.923       .  S
O79          C86   1.250       .  A
O80         Al84   1.792       .  S
O81          C82   1.272       .  A
C82         C609   1.479       .  S
C83         C456   1.487       .  S
C86         C446   1.482       .  S
C87          O88   1.255       .  A
C87         C479   1.463       .  S
O89         C104   1.266       .  A
O89        Al721   1.901   1_554  S
C90         O100   1.273       .  A
C90          O91   1.272       .  A
C90         C399   1.479       .  S
O91         Al93   1.899       .  S
O92          C94   1.256       .  A
O92         Al93   1.897       .  S
Al93        O101   1.875       .  S
Al93        O727   1.926       .  S
Al93        O102   1.786       .  S
C94         O107   1.261       .  A
C94         C436   1.480       .  S
O95         C105   1.259       .  A
O95         Al97   1.907       .  S
O96         C109   1.262       .  A
O96        Al106   1.919       .  S
Al97        O110   1.867       .  S
Al97        O107   1.920       .  S
Al97        O713   1.901       .  S
Al97        O102   1.791       .  S
O98         C105   1.257       .  A
O98        Al106   1.893       .  S
O99         C108   1.254       .  A
O99        Al106   1.919       .  S
O100       Al106   1.921       .  S
O101        C108   1.249       .  A
O102       Al106   1.796       .  S
O103        C104   1.270       .  A
O103       Al717   1.926   1_554  S
C104        C406   1.480       .  S
C105        C416   1.489       .  S
C108        C569   1.484       .  S
C109        O110   1.255       .  A
C109       C1050   1.463       .  S
O111        C126   1.269   1_655  A
O111       Al743   1.913       .  S
C112        O122   1.273       .  A
C112        O113   1.271   1_655  A
C112        C549   1.475       .  S
O113       Al115   1.889       .  S
O114        C116   1.256       .  A
O114       Al115   1.902       .  S
Al115       O123   1.880   1_455  S
Al115       O749   1.917       .  S
Al115       O124   1.784   1_455  S
C116        O129   1.259       .  A
C116        C579   1.479       .  S
O117        C127   1.261       .  A
O117       Al119   1.918       .  S
O118        C131   1.262       .  A
O118       Al128   1.921       .  S
Al119       O132   1.858       .  S
Al119       O129   1.913   1_655  S
Al119       O735   1.913   1_554  S
Al119       O124   1.790       .  S
O120        C127   1.256       .  A
O120       Al128   1.883       .  S
O121        C130   1.253       .  A
O121       Al128   1.914       .  S
O122       Al128   1.924       .  S
O123        C130   1.251       .  A
O124       Al128   1.796       .  S
O125        C126   1.268       .  A
O125       Al739   1.917       .  S
C126        C539   1.467       .  S
C127        C389   1.489       .  S
C130        C366   1.482       .  S
C131        O132   1.254       .  A
C131       C1000   1.465   1_554  S
O133        C148   1.263       .  A
O133       Al141   1.874       .  S
C134        O144   1.262       .  A
C134        O135   1.270   1_545  A
C134        C346   1.478       .  S
O135       Al137   1.932       .  S
O136        C138   1.254       .  A
O136       Al137   1.895       .  S
Al137       O145   1.891   1_565  S
Al137       O147   1.941       .  S
Al137       O146   1.780   1_565  S
C138        O151   1.256       .  A
C138        C419   1.488       .  S
O139        C149   1.268       .  A
O139       Al141   1.917       .  S
O140        C153   1.260       .  A
O140       Al150   1.914       .  S
Al141       O154   1.908       .  S
Al141       O151   1.913   1_545  S
Al141       O146   1.790       .  S
O142        C149   1.270       .  A
O142       Al150   1.923       .  S
O143        C152   1.255       .  A
O143       Al150   1.907       .  S
O144       Al150   1.867       .  S
O145        C152   1.255       .  A
O146       Al150   1.782       .  S
O147        C148   1.273   1_565  A
C148        C356   1.479       .  S
C149        C559   1.483       .  S
C152        C469   1.486       .  S
C153        O154   1.260       .  A
C153        C379   1.460       .  S
O155        C170   1.269       .  A
O155       Al163   1.918       .  S
C156        O166   1.273       .  A
C156        O157   1.269       .  A
C156        C349   1.477       .  S
O157       Al159   1.882       .  S
O158        C160   1.255       .  A
O158       Al159   1.898   1_545  S
Al159       O167   1.890       .  S
Al159       O169   1.907       .  S
Al159       O168   1.784       .  S
C160        O173   1.259   1_545  A
C160        C386   1.478       .  S
O161        C171   1.265       .  A
O161       Al163   1.934       .  S
O162        C175   1.261       .  A
O162       Al172   1.921       .  S
Al163       O176   1.861       .  S
Al163       O173   1.913       .  S
Al163       O168   1.791       .  S
O164        C171   1.257       .  A
O164       Al172   1.883       .  S
O165        C174   1.255       .  A
O165       Al172   1.917       .  S
O166       Al172   1.935       .  S
O167        C174   1.253       .  A
O168       Al172   1.793       .  S
O169        C170   1.268       .  A
C170        C359   1.460   1_565  S
C171        C336   1.494       .  S
C174        C326   1.485       .  S
C175        O176   1.253       .  A
C175        C429   1.464       .  S
O177        C192   1.269       .  A
O177       Al185   1.916       .  S
C178        O188   1.272       .  A
C178        O179   1.270       .  A
C178        C296   1.475       .  S
O179       Al181   1.890       .  S
O180        C182   1.255       .  A
O180       Al181   1.897   1_655  S
Al181       O189   1.878       .  S
Al181       O191   1.918       .  S
Al181       O190   1.783       .  S
C182        O195   1.258   1_655  A
C182        C319   1.477       .  S
O183        C193   1.262       .  A
O183       Al185   1.923       .  S
O184        C197   1.261       .  A
O184       Al194   1.920       .  S
Al185       O198   1.861       .  S
Al185       O195   1.912       .  S
Al185       O190   1.789       .  S
O186        C193   1.257       .  A
O186       Al194   1.884       .  S
O187        C196   1.256       .  A
O187       Al194   1.921       .  S
O188       Al194   1.924       .  S
O189        C196   1.251       .  A
O190       Al194   1.794       .  S
O191        C192   1.269       .  A
C192        C306   1.470       .  S
C193        C489   1.490       .  S
C196        C516   1.484       .  S
C197        O198   1.254       .  A
C197        C289   1.463       .  S
O199        C214   1.267       .  A
O199       Al207   1.899       .  S
C200        O210   1.271       .  A
C200        O201   1.272       .  A
C200        C509   1.476       .  S
O201       Al203   1.901       .  S
O202        C204   1.254       .  A
O202       Al203   1.891   1_545  S
Al203       O211   1.877       .  S
Al203       O213   1.921       .  S
Al203       O212   1.786       .  S
C204        O217   1.258   1_545  A
C204        C459   1.477       .  S
O205        C215   1.258       .  A
O205       Al207   1.902       .  S
O206        C219   1.260       .  A
O206       Al216   1.910       .  S
Al207       O220   1.869       .  S
Al207       O217   1.915       .  S
Al207       O212   1.794       .  S
O208        C215   1.257       .  A
O208       Al216   1.888       .  S
O209        C218   1.253       .  A
O209       Al216   1.914       .  S
O210       Al216   1.913       .  S
O211        C218   1.250       .  A
O212       Al216   1.796       .  S
O213        C214   1.270       .  A
C214        C499   1.478       .  S
C215        C276   1.485       .  S
C218        C329   1.482       .  S
C219        O220   1.255       .  A
C219        C286   1.460       .  S
O221        C236   1.267       .  A
O221       Al229   1.911       .  S
C222        O232   1.272       .  A
C222        O223   1.269       .  A
C222        C396   1.476       .  S
O223       Al225   1.891       .  S
O224        C226   1.257       .  A
O224       Al225   1.904       .  S
Al225       O233   1.882       .  S
Al225       O235   1.917       .  S
Al225       O234   1.783       .  S
C226        O239   1.260       .  A
C226        C339   1.483       .  S
O227        C237   1.262       .  A
O227       Al229   1.919       .  S
O228        C241   1.261       .  A
O228       Al238   1.917       .  S
Al229       O242   1.860       .  S
Al229       O239   1.915       .  S
Al229       O234   1.791       .  S
O230        C237   1.256       .  A
O230       Al238   1.883       .  S
O231        C240   1.254       .  A
O231       Al238   1.912       .  S
O232       Al238   1.924       .  S
O233        C240   1.252       .  A
O234       Al238   1.798       .  S
O235        C236   1.267       .  A
C236        C409   1.469       .  S
C237        C316   1.488       .  S
C240        C449   1.480       .  S
C241        O242   1.254       .  A
C241        C266   1.460       .  S
O243        C258   1.268       .  A
O243       Al251   1.911       .  S
C244        O254   1.271       .  A
C244        O245   1.270   1_655  A
C244        C299   1.474       .  S
O245       Al871   1.896       .  S
O246        C248   1.255       .  A
O246       Al247   1.890       .  S
Al247       O255   1.874   1_455  S
Al247       O257   1.924       .  S
Al247       O869   1.896       .  S
Al247       O256   1.784   1_455  S
C248        O261   1.260       .  A
C248        C279   1.473       .  S
O249        C259   1.262       .  A
O249       Al251   1.919       .  S
O250        C263   1.260       .  A
O250       Al260   1.910       .  S
Al251       O264   1.866       .  S
Al251       O261   1.915   1_655  S
Al251       O256   1.786       .  S
O252        C259   1.258       .  A
O252       Al260   1.891       .  S
O253        C262   1.255       .  A
O253       Al260   1.917       .  S
O254       Al884   1.916       .  S
O255        C262   1.251       .  A
O256       Al260   1.791       .  S
O257        C258   1.270   1_455  A
C258        C309   1.480       .  S
C259        C439   1.491   1_554  S
Al260       O878   1.916   1_554  S
C262        C369   1.480       .  S
C263        O264   1.255       .  A
C263        C269   1.458       .  S
C265        C266   1.405       .  A
C265        C270   1.395       .  A
C265        H271   1.084       .  S
C266        C267   1.399       .  A
C267        C268   1.396       .  A
C267        H272   1.083       .  S
C268        C269   1.404       .  A
C268        H273   1.083       .  S
C269        C270   1.398       .  A
C270        H274   1.083       .  S
C275        C276   1.406       .  A
C275        C280   1.396       .  A
C275        H281   1.083       .  S
C276        C277   1.408       .  A
C277        C278   1.403       .  A
C277        H282   1.083       .  S
C278        C279   1.403       .  A
C278        H283   1.083       .  S
C279        C280   1.403       .  A
C280        H284   1.084       .  S
C285        C286   1.405       .  A
C285        C290   1.398       .  A
C285        H291   1.084       .  S
C286        C287   1.398       .  A
C287        C288   1.395       .  A
C287        H292   1.083       .  S
C288        C289   1.405       .  A
C288        H293   1.084       .  S
C289        C290   1.400       .  A
C290        H294   1.084       .  S
C295        C296   1.403   1_655  A
C295        C300   1.394       .  A
C295        H301   1.083       .  S
C296        C297   1.406       .  A
C297        C298   1.396       .  A
C297        H302   1.083       .  S
C298        C299   1.403   1_455  A
C298        H303   1.083       .  S
C299        C300   1.406       .  A
C300        H304   1.083       .  S
C305        C306   1.398   1_655  A
C305        C310   1.389       .  A
C305        H311   1.084       .  S
C306        C307   1.407       .  A
C307        C308   1.409       .  A
C307        H312   1.083       .  S
C308        C309   1.407   1_455  A
C308        H313   1.083       .  S
C309        C310   1.406       .  A
C310        H314   1.083       .  S
C315        C316   1.408       .  A
C315        C320   1.404       .  A
C315        H321   1.083       .  S
C316        C317   1.408       .  A
C317        C318   1.397       .  A
C317        H322   1.083       .  S
C318        C319   1.403       .  A
C318        H323   1.084       .  S
C319        C320   1.405       .  A
C320        H324   1.083       .  S
C325        C326   1.408       .  A
C325        C330   1.408       .  A
C325        H331   1.083       .  S
C326        C327   1.405       .  A
C327        C328   1.389       .  A
C327        H332   1.083   1_565  S
C328        C329   1.404       .  A
C328        H333   1.083   1_565  S
C329        C330   1.408       .  A
C330        H334   1.083       .  S
C335        C336   1.409       .  A
C335        C340   1.409       .  A
C335        H341   1.083       .  S
C336        C337   1.409       .  A
C337        C338   1.397       .  A
C337        H342   1.083       .  S
C338        C339   1.403       .  A
C338        H343   1.083       .  S
C339        C340   1.408       .  A
C340        H344   1.083       .  S
C345        C346   1.405   1_565  A
C345        C350   1.402       .  A
C345        H351   1.083       .  S
C346        C347   1.405       .  A
C347        C348   1.389       .  A
C347        H352   1.083       .  S
C348        C349   1.402   1_545  A
C348        H353   1.083       .  S
C349        C350   1.408       .  A
C350        H354   1.083       .  S
C355        C356   1.408       .  A
C355        C984   1.393       .  A
C355        H361   1.083       .  S
C356        C357   1.406   1_545  A
C357        C982   1.401       .  A
C357        H362   1.083       .  S
C358        C359   1.402   1_565  A
C358        C981   1.401   1_554  A
C358        H363   1.082       .  S
C359        C360   1.397       .  A
C360        C979   1.393   1_554  A
C360        H364   1.084       .  S
C365        C366   1.409       .  A
C365        C370   1.408       .  A
C365        H371   1.083       .  S
C366        C367   1.404       .  A
C367        C368   1.386       .  A
C367        H372   1.083   1_655  S
C368        C369   1.404       .  A
C368        H373   1.083   1_655  S
C369        C370   1.407       .  A
C370        H374   1.083       .  S
C375        C376   1.404       .  A
C375        C380   1.391       .  A
C375        H381   1.085       .  S
C376        C755   1.465       .  S
C376        C377   1.402       .  A
C377        C378   1.402       .  A
C377        H382   1.083       .  S
C378        C379   1.405       .  A
C378        H383   1.084       .  S
C379        C380   1.398       .  A
C380        H384   1.084       .  S
C385        C386   1.406       .  A
C385        C390   1.405       .  A
C385        H391   1.083       .  S
C386        C387   1.403       .  A
C387        C388   1.398       .  A
C387        H392   1.084       .  S
C388        C389   1.408       .  A
C388        H393   1.083       .  S
C389        C390   1.408       .  A
C390        H394   1.083       .  S
C395        C396   1.406       .  A
C395        C400   1.398       .  A
C395        H401   1.083       .  S
C396        C397   1.403       .  A
C397        C398   1.395       .  A
C397        H402   1.083       .  S
C398        C399   1.406       .  A
C398        H403   1.083       .  S
C399        C400   1.405       .  A
C400        H404   1.083       .  S
C405        C406   1.407       .  A
C405        C410   1.387       .  A
C405        H411   1.083       .  S
C406        C407   1.406       .  A
C407        C408   1.408       .  A
C407        H412   1.083       .  S
C408        C409   1.407       .  A
C408        H413   1.083       .  S
C409        C410   1.398       .  A
C410        H414   1.084       .  S
C415        C416   1.407       .  A
C415        C420   1.399       .  A
C415        H421   1.083       .  S
C416        C417   1.407       .  A
C417        C418   1.403       .  A
C417        H422   1.083       .  S
C418        C419   1.408       .  A
C418        H423   1.083       .  S
C419        C420   1.406       .  A
C420        H424   1.083       .  S
C425        C426   1.399       .  A
C425        C430   1.397       .  A
C425       H1055   1.083   1_554  S
C426        C733   1.463   1_554  S
C426        C427   1.405       .  A
C427        C428   1.397       .  A
C427        H432   1.084       .  S
C428        C429   1.399       .  A
C428        H433   1.083       .  S
C429        C430   1.405       .  A
C430        H434   1.082       .  S
H431       C1049   1.083       .  S
C435        C436   1.404       .  A
C435        C440   1.398       .  A
C435        H441   1.084       .  S
C436       C1061   1.405       .  A
C437        C438   1.406       .  A
C437       C1060   1.405       .  A
C437        H442   1.083       .  S
C438        C439   1.409       .  A
C438        H443   1.083   1_556  S
C439       C1064   1.408       .  A
C440       C1063   1.408       .  A
C440        H444   1.083       .  S
C445        C446   1.404       .  A
C445        C450   1.388       .  A
C445        H451   1.083       .  S
C446        C447   1.408       .  A
C447        C448   1.408       .  A
C447        H452   1.083       .  S
C448        C449   1.408       .  A
C448        H453   1.083       .  S
C449        C450   1.403       .  A
C450        H454   1.084       .  S
C455        C456   1.408       .  A
C455        C460   1.404       .  A
C455        H461   1.083       .  S
C456        C457   1.407       .  A
C457        C458   1.397       .  A
C457        H462   1.083       .  S
C458        C459   1.404       .  A
C458        H463   1.084       .  S
C459        C460   1.405       .  A
C460        H464   1.083       .  S
C465        C466   1.405       .  A
C465        C470   1.407       .  A
C465        H471   1.083       .  S
C466        C467   1.406       .  A
C467        C468   1.394       .  A
C467        H472   1.084   1_545  S
C468        C469   1.403       .  A
C468        H473   1.083   1_545  S
C469        C470   1.410       .  A
C470        H474   1.083       .  S
C475        C476   1.400       .  A
C475        C480   1.397       .  A
C475        H481   1.083       .  S
C476        C477   1.405       .  A
C477        C478   1.397       .  A
C477        H482   1.085       .  S
C478        C479   1.399       .  A
C478        H483   1.083       .  S
C479        C480   1.405       .  A
C480        H484   1.085       .  S
C485        C486   1.406       .  A
C485        C490   1.406       .  A
C485        H491   1.083       .  S
C486        C487   1.402       .  A
C487        C488   1.396       .  A
C487        H492   1.084       .  S
C488        C489   1.408       .  A
C488        H493   1.083       .  S
C489        C490   1.408       .  A
C490        H494   1.083       .  S
C495        C496   1.398       .  A
C495        C500   1.388       .  A
C495        H501   1.084       .  S
C496        C497   1.406   1_565  A
C497        C498   1.407       .  A
C497        H502   1.083       .  S
C498        C499   1.406   1_545  A
C498        H503   1.083       .  S
C499        C500   1.406       .  A
C500        H504   1.083       .  S
C505        C506   1.402   1_565  A
C505       C1134   1.395       .  A
C505        H511   1.083       .  S
C506        C507   1.406       .  A
C507       C1132   1.396       .  A
C507        H512   1.083       .  S
C508        C509   1.403   1_545  A
C508       C1131   1.396   1_554  A
C508        H513   1.083       .  S
C509        C510   1.407       .  A
C510       C1129   1.395   1_554  A
C510        H514   1.083       .  S
C515        C516   1.408       .  A
C515        C520   1.410       .  A
C515        H521   1.083       .  S
C516        C517   1.405       .  A
C517        C518   1.387       .  A
C517        H522   1.083   1_455  S
C518        C519   1.403       .  A
C518        H523   1.083   1_455  S
C519        C520   1.409       .  A
C520        H524   1.082       .  S
C525        C526   1.405       .  A
C525        C530   1.404       .  A
C525        H531   1.083       .  S
C526        C527   1.403       .  A
C527        C528   1.397       .  A
C527        H532   1.083       .  S
C528        C529   1.407       .  A
C528        H533   1.083       .  S
C529        C530   1.408       .  A
C530        H534   1.083       .  S
C535        C536   1.406   1_655  A
C535        C540   1.408       .  A
C535        H541   1.083       .  S
C536        C537   1.406       .  A
C537        C538   1.387       .  A
C537        H542   1.083       .  S
C538        C539   1.398       .  A
C538        H543   1.084       .  S
C539        C540   1.406   1_455  A
C540        H544   1.083       .  S
C545        C546   1.406       .  A
C545        C550   1.393       .  A
C545        H551   1.083       .  S
C546        C547   1.403   1_455  A
C547        C548   1.398       .  A
C547        H552   1.083       .  S
C548        C549   1.407       .  A
C548        H553   1.083       .  S
C549        C550   1.403   1_655  A
C550        H554   1.083       .  S
C555        C556   1.402       .  A
C555        C560   1.395       .  A
C555        H561   1.083       .  S
C556        C557   1.407       .  A
C557        C558   1.406       .  A
C557        H562   1.083       .  S
C558        C559   1.407       .  A
C558        H563   1.083       .  S
C559        C560   1.405       .  A
C560        H564   1.084       .  S
C565        C566   1.409       .  A
C565        C570   1.410       .  A
C565        H571   1.083       .  S
C566        C567   1.404       .  A
C567        C568   1.389       .  A
C567        H572   1.083       .  S
C568        C569   1.404       .  A
C568        H573   1.083       .  S
C569        C570   1.408       .  A
C570        H574   1.083       .  S
C575        C576   1.408       .  A
C575        C580   1.397       .  A
C575        H581   1.083       .  S
C576       C1201   1.408       .  A
C577        C578   1.407       .  A
C577       C1200   1.408       .  A
C577        H582   1.083   1_554  S
C578        C579   1.407       .  A
C578        H583   1.083       .  S
C579       C1204   1.402       .  A
C580       C1203   1.402       .  A
C580        H584   1.084       .  S
C585        C586   1.400       .  A
C585        C590   1.398       .  A
C585        H591   1.082       .  S
C586        C587   1.405       .  A
C587        C588   1.396       .  A
C587        H592   1.085       .  S
C588        C589   1.399       .  A
C588        H593   1.083       .  S
C589        C590   1.405       .  A
C590        H594   1.085       .  S
C595        C596   1.406       .  A
C595        C600   1.397       .  A
C595        H601   1.083       .  S
C596        C597   1.403       .  A
C597        C598   1.395       .  A
C597        H602   1.083       .  S
C598        C599   1.406       .  A
C598        H603   1.083       .  S
C599        C600   1.404       .  A
C600        H604   1.083       .  S
C605        C606   1.407       .  A
C605        C610   1.408       .  A
C605        H611   1.083       .  S
C606        C607   1.398       .  A
C607        C608   1.385       .  A
C607        H612   1.084       .  S
C608        C609   1.406       .  A
C608        H613   1.083       .  S
C609        C610   1.407       .  A
C610        H614   1.083       .  S
C615        C616   1.408       .  A
C615        C620   1.406       .  A
C615        H621   1.083       .  S
C616        C617   1.409       .  A
C617        C618   1.397       .  A
C617        H622   1.083       .  S
C618        C619   1.402       .  A
C618        H623   1.083       .  S
C619        C620   1.406       .  A
C620        H624   1.083       .  S
O625        C640   1.268       .  A
O625       Al633   1.908       .  S
C626        O636   1.273       .  A
C626        O627   1.270       .  A
C626       C1220   1.476       .  S
O628        C630   1.258       .  A
O628       Al629   1.906       .  S
Al629       O637   1.889       .  S
Al629       O639   1.920       .  S
Al629       O638   1.784       .  S
C630        O643   1.260       .  A
C630       C1243   1.478       .  S
O631        C641   1.262       .  A
O631       Al633   1.924       .  S
O632        C645   1.262       .  A
O632       Al642   1.921       .  S
Al633       O646   1.863       .  S
Al633       O643   1.912       .  S
Al633       O638   1.790       .  S
O634        C641   1.256       .  A
O634       Al642   1.883       .  S
O635        C644   1.254       .  A
O635       Al642   1.916       .  S
O637        C644   1.253       .  A
O638       Al642   1.792       .  S
O639        C640   1.269       .  A
C640       C1230   1.469       .  S
C641       C1200   1.490   1_556  S
C644       C1190   1.486       .  S
C645        O646   1.254       .  A
C645       C1210   1.464       .  S
O647        C662   1.267       .  A
O647       Al655   1.902       .  S
C648        O658   1.271       .  A
C648        O649   1.271   1_455  A
C648       C1170   1.474       .  S
O649       Al651   1.900   1_655  S
O650        C652   1.257       .  A
O650       Al651   1.900   1_655  S
Al651       O659   1.886       .  S
Al651       O661   1.923       .  S
Al651       O660   1.786       .  S
C652        O665   1.258   1_655  A
C652       C1180   1.477       .  S
O653        C663   1.260       .  A
O653       Al655   1.911       .  S
O654        C667   1.261       .  A
O654       Al664   1.916       .  S
Al655       O668   1.868       .  S
Al655       O665   1.913       .  S
Al655       O660   1.789       .  S
O656        C663   1.257       .  A
O656       Al664   1.888       .  S
O657        C666   1.254       .  A
O657       Al664   1.915       .  S
O658       Al664   1.912       .  S
O659        C666   1.253       .  A
O660       Al664   1.792       .  S
O661        C662   1.270       .  A
C662       C1160   1.478       .  S
C663       C1153   1.487       .  S
C666       C1143   1.484       .  S
C667        O668   1.254       .  A
C667       C1213   1.461       .  S
O669        C684   1.268   1_545  A
O669       Al677   1.913       .  S
C670        O680   1.271       .  A
C670        O671   1.269   1_545  A
C670       C1130   1.475       .  S
O671       Al673   1.893       .  S
O672        C674   1.257       .  A
O672       Al673   1.902       .  S
Al673       O681   1.892   1_565  S
Al673       O683   1.918       .  S
Al673       O682   1.784   1_565  S
C674        O687   1.259       .  A
C674       C1110   1.478       .  S
O675        C685   1.263       .  A
O675       Al677   1.926       .  S
O676        C689   1.261       .  A
O676       Al686   1.920       .  S
Al677       O690   1.864       .  S
Al677       O687   1.913   1_545  S
Al677       O682   1.790       .  S
O678        C685   1.257       .  A
O678       Al686   1.884       .  S
O679        C688   1.257       .  A
O679       Al686   1.920       .  S
O680       Al686   1.920       .  S
O681        C688   1.253       .  A
O682       Al686   1.791       .  S
O683        C684   1.268       .  A
C684       C1120   1.468       .  S
C685       C1240   1.490       .  S
C688       C1090   1.484       .  S
C689        O690   1.254       .  A
C689       C1100   1.462       .  S
O691        C706   1.268       .  A
O691       Al699   1.902       .  S
C692        O702   1.274       .  A
C692        O693   1.272       .  A
C692       C1223   1.477       .  S
O693       Al695   1.897       .  S
O694        C696   1.255       .  A
O694       Al695   1.897       .  S
Al695       O703   1.879       .  S
Al695       O705   1.925       .  S
Al695       O704   1.785       .  S
C696        O709   1.258       .  A
C696       C1150   1.476       .  S
O697        C707   1.259       .  A
O697       Al699   1.908       .  S
O698        C711   1.261       .  A
O698       Al708   1.917       .  S
Al699       O712   1.868       .  S
Al699       O709   1.914       .  S
Al699       O704   1.789       .  S
O700        C707   1.256       .  A
O700       Al708   1.888       .  S
O701        C710   1.252       .  A
O701       Al708   1.914       .  S
O702       Al708   1.923       .  S
O703        C710   1.250       .  A
O704       Al708   1.792       .  S
O705        C706   1.272       .  A
C706       C1233   1.479       .  S
C707       C1080   1.487       .  S
C710       C1070   1.482       .  S
C711        O712   1.255       .  A
C711       C1103   1.463       .  S
O713        C728   1.266       .  A
C714        O724   1.273       .  A
C714        O715   1.272       .  A
C714       C1023   1.479       .  S
O715       Al717   1.899       .  S
O716        C718   1.256       .  A
O716       Al717   1.897       .  S
Al717       O725   1.875       .  S
Al717       O726   1.786       .  S
C718        O731   1.261       .  A
C718       C1060   1.480       .  S
O719        C729   1.259       .  A
O719       Al721   1.907       .  S
O720        C733   1.262       .  A
O720       Al730   1.919       .  S
Al721       O734   1.867       .  S
Al721       O731   1.920       .  S
Al721       O726   1.791       .  S
O722        C729   1.257       .  A
O722       Al730   1.893       .  S
O723        C732   1.254       .  A
O723       Al730   1.919       .  S
O724       Al730   1.921       .  S
O725        C732   1.249       .  A
O726       Al730   1.796       .  S
O727        C728   1.270       .  A
C728       C1030   1.480       .  S
C729       C1040   1.489       .  S
C732       C1193   1.484       .  S
C733        O734   1.255       .  A
O735        C750   1.269   1_655  A
C736        O746   1.273       .  A
C736        O737   1.271   1_655  A
C736       C1173   1.475       .  S
O737       Al739   1.889       .  S
O738        C740   1.256       .  A
O738       Al739   1.902       .  S
Al739       O747   1.880   1_455  S
Al739       O748   1.784   1_455  S
C740        O753   1.259       .  A
C740       C1203   1.479       .  S
O741        C751   1.261       .  A
O741       Al743   1.918       .  S
O742        C755   1.262       .  A
O742       Al752   1.921       .  S
Al743       O756   1.858       .  S
Al743       O753   1.913   1_655  S
Al743       O748   1.790       .  S
O744        C751   1.256       .  A
O744       Al752   1.883       .  S
O745        C754   1.253       .  A
O745       Al752   1.914       .  S
O746       Al752   1.924       .  S
O747        C754   1.251       .  A
O748       Al752   1.796       .  S
O749        C750   1.268   1_554  A
C750       C1163   1.467       .  S
C751       C1013   1.489       .  S
C754        C990   1.482       .  S
C755        O756   1.254       .  A
O757        C772   1.263       .  A
O757       Al765   1.874       .  S
C758        O768   1.262       .  A
C758        O759   1.270   1_545  A
C758        C970   1.478       .  S
O759       Al761   1.932       .  S
O760        C762   1.254       .  A
O760       Al761   1.895       .  S
Al761       O769   1.891   1_565  S
Al761       O771   1.941       .  S
Al761       O770   1.780   1_565  S
C762        O775   1.256       .  A
C762       C1043   1.488       .  S
O763        C773   1.268       .  A
O763       Al765   1.917       .  S
O764        C777   1.260       .  A
O764       Al774   1.914       .  S
Al765       O778   1.908       .  S
Al765       O775   1.913   1_545  S
Al765       O770   1.790       .  S
O766        C773   1.270       .  A
O766       Al774   1.923       .  S
O767        C776   1.255       .  A
O767       Al774   1.907       .  S
O768       Al774   1.867       .  S
O769        C776   1.255       .  A
O770       Al774   1.782       .  S
O771        C772   1.273   1_565  A
C772        C980   1.479       .  S
C773       C1183   1.483       .  S
C776       C1093   1.486       .  S
C777        O778   1.260       .  A
C777       C1003   1.460       .  S
O779        C794   1.269       .  A
O779       Al787   1.918       .  S
C780        O790   1.273       .  A
C780        O781   1.269       .  A
C780        C973   1.477       .  S
O781       Al783   1.882       .  S
O782        C784   1.255       .  A
O782       Al783   1.898   1_545  S
Al783       O791   1.890       .  S
Al783       O793   1.907       .  S
Al783       O792   1.784       .  S
C784        O797   1.259   1_545  A
C784       C1010   1.478       .  S
O785        C795   1.265       .  A
O785       Al787   1.934       .  S
O786        C799   1.261       .  A
O786       Al796   1.921       .  S
Al787       O800   1.861       .  S
Al787       O797   1.913       .  S
Al787       O792   1.791       .  S
O788        C795   1.257       .  A
O788       Al796   1.883       .  S
O789        C798   1.255       .  A
O789       Al796   1.917       .  S
O790       Al796   1.935       .  S
O791        C798   1.252       .  A
O792       Al796   1.793       .  S
O793        C794   1.268       .  A
C794        C983   1.460   1_565  S
C795        C960   1.494       .  S
C798        C950   1.485       .  S
C799        O800   1.253       .  A
C799       C1053   1.464       .  S
O801        C816   1.269       .  A
O801       Al809   1.916       .  S
C802        O812   1.272       .  A
C802        O803   1.270       .  A
C802        C920   1.475       .  S
O803       Al805   1.890       .  S
O804        C806   1.255       .  A
O804       Al805   1.897   1_655  S
Al805       O813   1.878       .  S
Al805       O815   1.918       .  S
Al805       O814   1.783       .  S
C806        O819   1.258   1_655  A
C806        C943   1.477       .  S
O807        C817   1.262       .  A
O807       Al809   1.923       .  S
O808        C821   1.261       .  A
O808       Al818   1.920       .  S
Al809       O822   1.861       .  S
Al809       O819   1.912       .  S
Al809       O814   1.789       .  S
O810        C817   1.257       .  A
O810       Al818   1.884       .  S
O811        C820   1.256       .  A
O811       Al818   1.921       .  S
O812       Al818   1.924       .  S
O813        C820   1.251       .  A
O814       Al818   1.794       .  S
O815        C816   1.269       .  A
C816        C930   1.470       .  S
C817       C1113   1.490       .  S
C820       C1140   1.484       .  S
C821        O822   1.254       .  A
C821        C913   1.463       .  S
O823        C838   1.267       .  A
O823       Al831   1.899       .  S
C824        O834   1.271       .  A
C824        O825   1.272       .  A
C824       C1133   1.476       .  S
O825       Al827   1.901       .  S
O826        C828   1.254       .  A
O826       Al827   1.891   1_545  S
Al827       O835   1.877       .  S
Al827       O837   1.921       .  S
Al827       O836   1.786       .  S
C828        O841   1.258   1_545  A
C828       C1083   1.477       .  S
O829        C839   1.258       .  A
O829       Al831   1.902       .  S
O830        C843   1.260       .  A
O830       Al840   1.910       .  S
Al831       O844   1.869       .  S
Al831       O841   1.915       .  S
Al831       O836   1.794       .  S
O832        C839   1.257       .  A
O832       Al840   1.888       .  S
O833        C842   1.253       .  A
O833       Al840   1.914       .  S
O834       Al840   1.913       .  S
O835        C842   1.250       .  A
O836       Al840   1.796       .  S
O837        C838   1.270       .  A
C838       C1123   1.478       .  S
C839        C900   1.485       .  S
C842        C953   1.483       .  S
C843        O844   1.255       .  A
C843        C910   1.460       .  S
O845        C860   1.267       .  A
O845       Al853   1.911       .  S
C846        O856   1.272       .  A
C846        O847   1.269       .  A
C846       C1020   1.476       .  S
O847       Al849   1.891       .  S
O848        C850   1.257       .  A
O848       Al849   1.904       .  S
Al849       O857   1.882       .  S
Al849       O859   1.917       .  S
Al849       O858   1.783       .  S
C850        O863   1.260       .  A
C850        C963   1.483       .  S
O851        C861   1.262       .  A
O851       Al853   1.919       .  S
O852        C865   1.261       .  A
O852       Al862   1.917       .  S
Al853       O866   1.860       .  S
Al853       O863   1.915       .  S
Al853       O858   1.791       .  S
O854        C861   1.256       .  A
O854       Al862   1.883       .  S
O855        C864   1.254       .  A
O855       Al862   1.912       .  S
O856       Al862   1.924       .  S
O857        C864   1.252       .  A
O858       Al862   1.798       .  S
O859        C860   1.267       .  A
C860       C1033   1.469       .  S
C861        C940   1.488       .  S
C864       C1073   1.480       .  S
C865        O866   1.254       .  A
C865        C890   1.460       .  S
O867        C882   1.268       .  A
O867       Al875   1.911       .  S
C868        O878   1.271       .  A
C868        O869   1.270   1_656  A
C868        C923   1.474       .  S
O870        C872   1.255       .  A
O870       Al871   1.890       .  S
Al871       O879   1.874   1_455  S
Al871       O881   1.924       .  S
Al871       O880   1.784   1_455  S
C872        O885   1.260       .  A
C872        C903   1.473       .  S
O873        C883   1.262       .  A
O873       Al875   1.919       .  S
O874        C887   1.260       .  A
O874       Al884   1.910       .  S
Al875       O888   1.866       .  S
Al875       O885   1.915   1_655  S
Al875       O880   1.786       .  S
O876        C883   1.258       .  A
O876       Al884   1.891       .  S
O877        C886   1.255       .  A
O877       Al884   1.917       .  S
O879        C886   1.251       .  A
O880       Al884   1.791       .  S
O881        C882   1.270   1_455  A
C882        C933   1.480       .  S
C883       C1063   1.491       .  S
C886        C993   1.480       .  S
C887        O888   1.255       .  A
C887        C893   1.458       .  S
C889        C890   1.405       .  A
C889        C894   1.395       .  A
C889        H895   1.084       .  S
C890        C891   1.399       .  A
C891        C892   1.396       .  A
C891        H896   1.083       .  S
C892        C893   1.404       .  A
C892        H897   1.083       .  S
C893        C894   1.398       .  A
C894        H898   1.083       .  S
C899        C900   1.406       .  A
C899        C904   1.396       .  A
C899        H905   1.083       .  S
C900        C901   1.408       .  A
C901        C902   1.403       .  A
C901        H906   1.083       .  S
C902        C903   1.403       .  A
C902        H907   1.083       .  S
C903        C904   1.403       .  A
C904        H908   1.084       .  S
C909        C910   1.405       .  A
C909        C914   1.398       .  A
C909        H915   1.084       .  S
C910        C911   1.398       .  A
C911        C912   1.395       .  A
C911        H916   1.083       .  S
C912        C913   1.405       .  A
C912        H917   1.084       .  S
C913        C914   1.400       .  A
C914        H918   1.084       .  S
C919        C920   1.403   1_655  A
C919        C924   1.394       .  A
C919        H925   1.083       .  S
C920        C921   1.406       .  A
C921        C922   1.396       .  A
C921        H926   1.083       .  S
C922        C923   1.403   1_455  A
C922        H927   1.083       .  S
C923        C924   1.406       .  A
C924        H928   1.083       .  S
C929        C930   1.398   1_655  A
C929        C934   1.389       .  A
C929        H935   1.084       .  S
C930        C931   1.407       .  A
C931        C932   1.409       .  A
C931        H936   1.083       .  S
C932        C933   1.407   1_455  A
C932        H937   1.083       .  S
C933        C934   1.406       .  A
C934        H938   1.083       .  S
C939        C940   1.408       .  A
C939        C944   1.404       .  A
C939        H945   1.083       .  S
C940        C941   1.408       .  A
C941        C942   1.397       .  A
C941        H946   1.083       .  S
C942        C943   1.403       .  A
C942        H947   1.084       .  S
C943        C944   1.405       .  A
C944        H948   1.083       .  S
C949        C950   1.408       .  A
C949        C954   1.408       .  A
C949        H955   1.083       .  S
C950        C951   1.405       .  A
C951        C952   1.389       .  A
C951        H956   1.083   1_565  S
C952        C953   1.404       .  A
C952        H957   1.083   1_565  S
C953        C954   1.408       .  A
C954        H958   1.083       .  S
C959        C960   1.409       .  A
C959        C964   1.409       .  A
C959        H965   1.083       .  S
C960        C961   1.409       .  A
C961        C962   1.397       .  A
C961        H966   1.083       .  S
C962        C963   1.403       .  A
C962        H967   1.083       .  S
C963        C964   1.408       .  A
C964        H968   1.083       .  S
C969        C970   1.405   1_565  A
C969        C974   1.402       .  A
C969        H975   1.083       .  S
C970        C971   1.405       .  A
C971        C972   1.389       .  A
C971        H976   1.083       .  S
C972        C973   1.402   1_545  A
C972        H977   1.083       .  S
C973        C974   1.408       .  A
C974        H978   1.083       .  S
C979        C980   1.408       .  A
C979        H985   1.083       .  S
C980        C981   1.406   1_545  A
C981        H986   1.083       .  S
C982        C983   1.402   1_565  A
C982        H987   1.082       .  S
C983        C984   1.397       .  A
C984        H988   1.084       .  S
C989        C990   1.409       .  A
C989        C994   1.408       .  A
C989        H995   1.083       .  S
C990        C991   1.404       .  A
C991        C992   1.386       .  A
C991        H996   1.083   1_655  S
C992        C993   1.404       .  A
C992        H997   1.083   1_655  S
C993        C994   1.407       .  A
C994        H998   1.083       .  S
C999       C1000   1.404       .  A
C999       C1004   1.391       .  A
C999       H1005   1.085       .  S
C1000      C1001   1.402       .  A
C1001      C1002   1.402       .  A
C1001      H1006   1.083   1_556  S
C1002      C1003   1.405       .  A
C1002      H1007   1.084       .  S
C1003      C1004   1.398       .  A
C1004      H1008   1.084       .  S
C1009      C1010   1.406       .  A
C1009      C1014   1.405       .  A
C1009      H1015   1.083       .  S
C1010      C1011   1.403       .  A
C1011      C1012   1.398       .  A
C1011      H1016   1.084       .  S
C1012      C1013   1.408       .  A
C1012      H1017   1.083       .  S
C1013      C1014   1.408       .  A
C1014      H1018   1.083       .  S
C1019      C1020   1.406       .  A
C1019      C1024   1.398       .  A
C1019      H1025   1.083       .  S
C1020      C1021   1.403       .  A
C1021      C1022   1.395       .  A
C1021      H1026   1.083       .  S
C1022      C1023   1.406       .  A
C1022      H1027   1.083       .  S
C1023      C1024   1.405       .  A
C1024      H1028   1.083       .  S
C1029      C1030   1.407       .  A
C1029      C1034   1.387       .  A
C1029      H1035   1.083       .  S
C1030      C1031   1.406       .  A
C1031      C1032   1.408       .  A
C1031      H1036   1.083       .  S
C1032      C1033   1.407       .  A
C1032      H1037   1.083       .  S
C1033      C1034   1.398       .  A
C1034      H1038   1.084       .  S
C1039      C1040   1.407       .  A
C1039      C1044   1.399       .  A
C1039      H1045   1.083       .  S
C1040      C1041   1.407       .  A
C1041      C1042   1.403       .  A
C1041      H1046   1.083       .  S
C1042      C1043   1.408       .  A
C1042      H1047   1.083       .  S
C1043      C1044   1.406       .  A
C1044      H1048   1.083       .  S
C1049      C1050   1.399       .  A
C1049      C1054   1.397       .  A
C1050      C1051   1.405       .  A
C1051      C1052   1.397       .  A
C1051      H1056   1.084       .  S
C1052      C1053   1.399       .  A
C1052      H1057   1.083       .  S
C1053      C1054   1.405       .  A
C1054      H1058   1.082       .  S
C1059      C1060   1.404       .  A
C1059      C1064   1.398       .  A
C1059      H1065   1.084       .  S
C1061      C1062   1.406       .  A
C1061      H1066   1.083       .  S
C1062      C1063   1.409       .  A
C1062      H1067   1.083       .  S
C1064      H1068   1.083       .  S
C1069      C1070   1.404       .  A
C1069      C1074   1.388       .  A
C1069      H1075   1.083       .  S
C1070      C1071   1.408       .  A
C1071      C1072   1.408       .  A
C1071      H1076   1.083       .  S
C1072      C1073   1.408       .  A
C1072      H1077   1.083       .  S
C1073      C1074   1.403       .  A
C1074      H1078   1.084       .  S
C1079      C1080   1.408       .  A
C1079      C1084   1.404       .  A
C1079      H1085   1.083       .  S
C1080      C1081   1.407       .  A
C1081      C1082   1.397       .  A
C1081      H1086   1.083       .  S
C1082      C1083   1.404       .  A
C1082      H1087   1.084       .  S
C1083      C1084   1.405       .  A
C1084      H1088   1.083       .  S
C1089      C1090   1.405       .  A
C1089      C1094   1.407       .  A
C1089      H1095   1.083       .  S
C1090      C1091   1.406       .  A
C1091      C1092   1.394       .  A
C1091      H1096   1.084   1_545  S
C1092      C1093   1.403       .  A
C1092      H1097   1.083   1_545  S
C1093      C1094   1.410       .  A
C1094      H1098   1.083       .  S
C1099      C1100   1.400       .  A
C1099      C1104   1.397       .  A
C1099      H1105   1.083       .  S
C1100      C1101   1.405       .  A
C1101      C1102   1.397       .  A
C1101      H1106   1.085       .  S
C1102      C1103   1.399       .  A
C1102      H1107   1.083       .  S
C1103      C1104   1.405       .  A
C1104      H1108   1.085       .  S
C1109      C1110   1.406       .  A
C1109      C1114   1.406       .  A
C1109      H1115   1.083       .  S
C1110      C1111   1.402       .  A
C1111      C1112   1.396       .  A
C1111      H1116   1.084       .  S
C1112      C1113   1.408       .  A
C1112      H1117   1.083       .  S
C1113      C1114   1.408       .  A
C1114      H1118   1.083       .  S
C1119      C1120   1.398       .  A
C1119      C1124   1.388       .  A
C1119      H1125   1.084       .  S
C1120      C1121   1.406   1_565  A
C1121      C1122   1.407       .  A
C1121      H1126   1.083       .  S
C1122      C1123   1.406   1_545  A
C1122      H1127   1.083       .  S
C1123      C1124   1.406       .  A
C1124      H1128   1.083       .  S
C1129      C1130   1.402   1_565  A
C1129      H1135   1.083       .  S
C1130      C1131   1.406       .  A
C1131      H1136   1.083       .  S
C1132      C1133   1.403   1_545  A
C1132      H1137   1.083       .  S
C1133      C1134   1.407       .  A
C1134      H1138   1.083       .  S
C1139      C1140   1.408       .  A
C1139      C1144   1.410       .  A
C1139      H1145   1.083       .  S
C1140      C1141   1.405       .  A
C1141      C1142   1.387       .  A
C1141      H1146   1.083   1_455  S
C1142      C1143   1.403       .  A
C1142      H1147   1.083   1_455  S
C1143      C1144   1.409       .  A
C1144      H1148   1.082       .  S
C1149      C1150   1.405       .  A
C1149      C1154   1.404       .  A
C1149      H1155   1.083       .  S
C1150      C1151   1.403       .  A
C1151      C1152   1.397       .  A
C1151      H1156   1.084       .  S
C1152      C1153   1.407       .  A
C1152      H1157   1.083       .  S
C1153      C1154   1.408       .  A
C1154      H1158   1.083       .  S
C1159      C1160   1.406   1_655  A
C1159      C1164   1.408       .  A
C1159      H1165   1.083       .  S
C1160      C1161   1.406       .  A
C1161      C1162   1.387       .  A
C1161      H1166   1.083       .  S
C1162      C1163   1.398       .  A
C1162      H1167   1.084       .  S
C1163      C1164   1.406   1_455  A
C1164      H1168   1.083       .  S
C1169      C1170   1.406       .  A
C1169      C1174   1.393       .  A
C1169      H1175   1.083       .  S
C1170      C1171   1.403   1_455  A
C1171      C1172   1.398       .  A
C1171      H1176   1.083       .  S
C1172      C1173   1.407       .  A
C1172      H1177   1.083       .  S
C1173      C1174   1.403   1_655  A
C1174      H1178   1.083       .  S
C1179      C1180   1.402       .  A
C1179      C1184   1.395       .  A
C1179      H1185   1.083       .  S
C1180      C1181   1.407       .  A
C1181      C1182   1.406       .  A
C1181      H1186   1.083       .  S
C1182      C1183   1.407       .  A
C1182      H1187   1.083       .  S
C1183      C1184   1.405       .  A
C1184      H1188   1.084       .  S
C1189      C1190   1.409       .  A
C1189      C1194   1.410       .  A
C1189      H1195   1.083       .  S
C1190      C1191   1.404       .  A
C1191      C1192   1.389       .  A
C1191      H1196   1.083       .  S
C1192      C1193   1.404       .  A
C1192      H1197   1.083       .  S
C1193      C1194   1.408       .  A
C1194      H1198   1.083       .  S
C1199      C1200   1.408       .  A
C1199      C1204   1.397       .  A
C1199      H1205   1.083       .  S
C1201      C1202   1.407       .  A
C1201      H1206   1.083       .  S
C1202      C1203   1.407       .  A
C1202      H1207   1.083       .  S
C1204      H1208   1.084       .  S
C1209      C1210   1.400       .  A
C1209      C1214   1.398       .  A
C1209      H1215   1.082       .  S
C1210      C1211   1.405       .  A
C1211      C1212   1.396       .  A
C1211      H1216   1.085       .  S
C1212      C1213   1.399       .  A
C1212      H1217   1.083       .  S
C1213      C1214   1.405       .  A
C1214      H1218   1.085       .  S
C1219      C1220   1.406       .  A
C1219      C1224   1.397       .  A
C1219      H1225   1.083       .  S
C1220      C1221   1.403       .  A
C1221      C1222   1.395       .  A
C1221      H1226   1.083       .  S
C1222      C1223   1.406       .  A
C1222      H1227   1.083       .  S
C1223      C1224   1.404       .  A
C1224      H1228   1.083       .  S
C1229      C1230   1.407       .  A
C1229      C1234   1.408       .  A
C1229      H1235   1.083       .  S
C1230      C1231   1.398       .  A
C1231      C1232   1.385       .  A
C1231      H1236   1.084       .  S
C1232      C1233   1.406       .  A
C1232      H1237   1.083       .  S
C1233      C1234   1.407       .  A
C1234      H1238   1.083       .  S
C1239      C1240   1.408       .  A
C1239      C1244   1.406       .  A
C1239      H1245   1.083       .  S
C1240      C1241   1.409       .  A
C1241      C1242   1.397       .  A
C1241      H1246   1.083       .  S
C1242      C1243   1.402       .  A
C1242      H1247   1.083       .  S
C1243      C1244   1.406       .  A
C1244      H1248   1.083       .  S
