geometry optimzed in LAMMPS
_audit_creation_date              2020-12-01 
_audit_creation_method            'lammps2cif' 
_symmetry_space_group_name_H-M    'P1' 
_symmetry_Int_Tables_number       1 
_symmetry_cell_setting            triclinic 
loop_ 
_symmetry_equiv_pos_as_xyz 
  x,y,z 
_cell_length_a                    50.03787934 
_cell_length_b                    50.29987112448136 
_cell_length_c                    77.18006489369867 
_cell_angle_alpha                 90.36714470848713 
_cell_angle_beta                  89.91031918214394 
_cell_angle_gamma                 119.87552232210228 
loop_ 
_atom_site_label 
_atom_site_type_symbol 
_atom_site_fract_x 
_atom_site_fract_y 
_atom_site_fract_z 
_atom_site_charge 
Zr1        Zr  0.00406802  0.16665466  0.98393021     2.17500
O2          O  0.45411938  0.16770914  0.99027157    -0.52100
O3          O  0.48247793  0.14355538  0.01176095    -0.75300
O4          O  0.45993890  0.14240760  0.96397013    -0.82100
O5          O  0.04536772  0.23365071  0.01130571    -0.83800
O6          O  0.47766159  0.12286819  0.94330465    -0.79500
O7          O  0.51207773  0.22083771  0.98848827    -0.91100
O8          O  0.01230021  0.11513856  0.01798014    -0.77100
O9          O  0.01257687  0.12548970  0.97676090    -0.86600
O10         O  0.04344071  0.17256978  0.00392468    -0.86200
O11         O  0.02115559  0.17601608  0.95418176    -0.73000
O12         O  0.04787726  0.21677109  0.97923756    -0.85100
Zr13       Zr  0.11196807  0.18764550  0.96229068     2.26400
Zr14       Zr  0.03071386  0.13481102  0.94753024     2.06300
Zr15       Zr  0.08649092  0.22250687  0.99938220     2.10000
Zr16       Zr  0.05213909  0.13126288  0.99627238     1.78800
O17         O  0.11371360  0.27833461  0.99855545    -0.93900
O18         O  0.02059231  0.07565525  0.99368994    -0.41700
O19         O  0.09571085  0.18109946  0.99202239    -0.78400
O20         O  0.06923630  0.13733157  0.96666027    -0.97100
O21         O  0.07405713  0.18430336  0.94281734    -0.90400
O22         O  0.10442099  0.22959051  0.97011985    -0.93200
C23         C  0.48890193  0.12773838  0.02231458     1.00500
C24         C  0.02039435  0.23022657  0.00394338     1.13500
C25         C  0.45695002  0.12768871  0.94980984     1.04300
O26         O  0.01669757  0.08191669  0.95343042    -0.95400
O27         O  0.06580553  0.14173763  0.92376348    -0.91100
O28         O  0.11494404  0.16782948  0.93385350    -0.84300
C29         C  0.09503786  0.15343307  0.92182226     1.10900
O30         O  0.02949319  0.24212854  0.94312391    -0.97300
Zr31       Zr  0.06635671  0.22556045  0.95025729     1.88900
O32         O  0.14341458  0.22862809  0.94296192    -0.74000
O33         O  0.00973263  0.10849051  0.91996113    -0.53300
O34         O  0.05560529  0.22054711  0.91933799    -0.97900
O35         O  0.08316417  0.27865958  0.95800180    -0.55100
O36         O  0.11745778  0.25371330  0.93721735    -0.74500
C37         C  0.14145970  0.25066753  0.93618753     0.97800
O38         O  0.14363225  0.16358870  0.96521797    -0.63300
O39         O  0.09506497  0.22624773  0.03059494    -0.58100
O40         O  0.15631407  0.21750877  0.98014133    -0.94800
O41         O  0.14113614  0.23411117  0.00381669    -0.93200
O42         O  0.07970336  0.13839303  0.02344428    -0.93600
O43         O  0.08411656  0.10728833  0.99581157    -0.92400
C44         C  0.16142075  0.23073812  0.99493474     1.16700
H45         H  0.03887859  0.17297687  0.01595893     0.32600
H46         H  0.07475132  0.12196629  0.96348176     0.43500
H47         H  0.12331101  0.24902244  0.96938334     0.37000
H48         H  0.00611423  0.17667411  0.94666524     0.33500
H49         H  0.02089412  0.06784286  0.00540766     0.25300
H50         H  0.99009278  0.08965608  0.92265279     0.31200
H51         H  0.06228873  0.24164685  0.91541740     0.37100
H52         H  0.06934181  0.11793534  0.02893935     0.31600
H53         H  0.10525302  0.24850088  0.03315280     0.30500
H54         H  0.13584162  0.28453253  0.99832488     0.32100
H55         H  0.08919475  0.28983459  0.94687982     0.31100
H56         H  0.10535446  0.12424703  0.99790433     0.35100
H57         H  0.14386771  0.15997516  0.97777527     0.27800
H58         H  0.45574947  0.17487008  0.00240836     0.32100
H59         H  0.01215729  0.23082916  0.95124877     0.34900
H60         H  0.07431116  0.21772184  0.03578350     0.27500
H61         H  0.13104627  0.14277801  0.96023099     0.40400
H62         H  0.99392224  0.07084914  0.95421303     0.30500
H63         H  0.99922750  0.07153542  0.99221429     0.38100
H64         H  0.10288693  0.28591993  0.96424615     0.29900
H65         H  0.00372902  0.12164275  0.91347103     0.30000
H66         H  0.45396331  0.18406118  0.98327689     0.30200
Zr67       Zr  0.34449483  0.00163726  0.86789262     2.17500
O68         O  0.34520824  0.04865726  0.85913337    -0.52100
O69         O  0.38154274  0.02432887  0.84350790    -0.75300
O70         O  0.36621805  0.04304902  0.88972958    -0.82100
O71         O  0.27005067  0.45393020  0.84257325    -0.83800
O72         O  0.38212072  0.02554027  0.91207369    -0.79500
O73         O  0.30073904  0.00032038  0.85475020    -0.91100
O74         O  0.39807925  0.99195177  0.83505068    -0.77100
O75         O  0.38315287  0.49157363  0.87843659    -0.86600
O76         O  0.33942219  0.46118028  0.84924047    -0.86200
O77         O  0.32685706  0.48086708  0.89784905    -0.73000
O78         O  0.29223964  0.45565299  0.87089744    -0.85100
Zr79       Zr  0.31776734  0.39086650  0.89150002     2.26400
Zr80       Zr  0.36742175  0.47184756  0.90706683     2.06300
Zr81       Zr  0.28929245  0.41692313  0.85160445     2.10000
Zr82       Zr  0.37958730  0.45228533  0.85935879     1.78800
O83         O  0.23434572  0.38597831  0.84576250    -0.93900
O84         O  0.43400304  0.48818631  0.86500339    -0.41700
O85         O  0.32949504  0.40821947  0.86210496    -0.78400
O86         O  0.36839367  0.43411755  0.88872554    -0.97100
O87         O  0.31720214  0.42820195  0.91003976    -0.90400
O88         O  0.27711852  0.39810542  0.88043659    -0.93200
C89         C  0.39570623  0.01587570  0.83272701     1.00500
C90         C  0.27850508  0.48292628  0.84529869     1.13500
C91         C  0.37794692  0.04591804  0.90488737     1.04300
O92         O  0.42130512  0.48656800  0.90330200    -0.95400
O93         O  0.36251283  0.43815441  0.93035492    -0.91100
O94         O  0.33497365  0.38885212  0.92096475    -0.84300
C95         C  0.35054738  0.40929553  0.93257238     1.10900
O96         O  0.25892362  0.47035676  0.90835627    -0.97300
Zr97       Zr  0.27691212  0.43543216  0.89926846     1.88900
O98         O  0.27001961  0.35711674  0.90580954    -0.74000
O99         O  0.38742879  0.49049814  0.93622218    -0.53300
O100        O  0.26828604  0.43836353  0.93006841    -0.97900
O101        O  0.22860655  0.42100447  0.88421166    -0.55100
O102        O  0.24549037  0.38418012  0.91086031    -0.74500
C103        C  0.24724438  0.35959931  0.91136724     0.97800
O104        O  0.34366098  0.36061790  0.89096839    -0.63300
O105        O  0.29951560  0.41585985  0.82079737    -0.58100
O106        O  0.29317634  0.34643922  0.87331804    -0.94800
O107        O  0.27917230  0.36165608  0.84875993    -0.93200
O108        O  0.37842635  0.42470203  0.83313144    -0.93600
O109        O  0.40633906  0.42299299  0.86030121    -0.92400
C110        C  0.28197254  0.34133435  0.85801697     1.16700
H111        H  0.34084474  0.46727547  0.83731716     0.32600
H112        H  0.38348518  0.42908177  0.89282442     0.43500
H113        H  0.25750178  0.37936429  0.87981475     0.37000
H114        H  0.32459289  0.49515479  0.90519699     0.33500
H115        H  0.44532532  0.48316022  0.85625333     0.25300
H116        H  0.40677421  0.51033673  0.93485798     0.31200
H117        H  0.28843345  0.45455933  0.93458100     0.37100
H118        H  0.35637882  0.41319190  0.82981932     0.31600
H119        H  0.28550371  0.39439433  0.81714065     0.30500
H120        H  0.23289219  0.37296166  0.83572812     0.32100
H121        H  0.23363766  0.43685509  0.87532576     0.31100
H122        H  0.39027651  0.40202807  0.86355293     0.35100
H123        H  0.34697444  0.35799823  0.87856185     0.27800
H124        H  0.36708493  0.06506532  0.85942629     0.32100
H125        H  0.27691112  0.49124385  0.90734860     0.34900
H126        H  0.29094218  0.42772383  0.81527082     0.27500
H127        H  0.36465751  0.37474155  0.89533206     0.40400
H128        H  0.42495585  0.47440518  0.91204995     0.30500
H129        H  0.43735582  0.50852100  0.86149545     0.38100
H130        H  0.21543396  0.42402860  0.89267542     0.29900
H131        H  0.37273350  0.49562648  0.94181085     0.30000
H132        H  0.33512453  0.05402438  0.86849987     0.30200
Zr133      Zr  0.33909036  0.31727830  0.31815494     2.17500
O134        O  0.34404148  0.27374027  0.32804038    -0.52100
O135        O  0.37313740  0.33113918  0.34343883    -0.75300
O136        O  0.36334854  0.29893424  0.29730333    -0.82100
O137        O  0.26450237  0.28965382  0.34289325    -0.83800
O138        O  0.37897621  0.33220581  0.27493550    -0.79500
O139        O  0.29533468  0.27390365  0.33011213    -0.91100
O140        O  0.39393307  0.38193093  0.34905119    -0.77100
O141        O  0.37897999  0.36620567  0.30907907    -0.86600
O142        O  0.33410527  0.35257704  0.33718287    -0.86200
O143        O  0.32576862  0.32057880  0.28851592    -0.73000
O144        O  0.28809001  0.31001142  0.31453049    -0.85100
Zr145      Zr  0.31157211  0.39846973  0.29397581     2.26400
Zr146      Zr  0.36531388  0.37091102  0.28001934     2.06300
Zr147      Zr  0.28324590  0.34508038  0.33358105     2.10000
Zr148      Zr  0.37372259  0.40170988  0.32738441     1.78800
O149        O  0.22831068  0.32213286  0.33925731    -0.93900
O150        O  0.42824963  0.42519940  0.32018082    -0.41700
O151        O  0.32288722  0.39414333  0.32368554    -0.78400
O152        O  0.36311156  0.40841293  0.29788679    -0.97100
O153        O  0.31449027  0.36248750  0.27547432    -0.90400
O154        O  0.27198253  0.34975994  0.30421533    -0.93200
C155        C  0.38960015  0.35525005  0.35264992     1.00500
C156        C  0.27215735  0.26878366  0.33933047     1.13500
C157        C  0.37534546  0.30797704  0.28229159     1.04300
O158        O  0.41868427  0.41078177  0.28434668    -0.95400
O159        O  0.36020014  0.39925275  0.25634445    -0.91100
O160        O  0.33276588  0.42090982  0.26594180    -0.84300
C161        C  0.34872491  0.41676879  0.25434253     1.10900
O162        O  0.26400833  0.26235807  0.27744962    -0.97300
Zr163      Zr  0.27539392  0.31401798  0.28526511     1.88900
O164        O  0.26336509  0.38129835  0.27867130    -0.74000
O165        O  0.38538827  0.37269227  0.25096702    -0.53300
O166        O  0.28020542  0.31138839  0.25396333    -0.97900
O167        O  0.22421539  0.27368398  0.29391361    -0.55100
O168        O  0.24149093  0.33020815  0.27300655    -0.74500
C169        C  0.24176579  0.35575643  0.27264886     0.97800
O170        O  0.33162339  0.45390976  0.29381702    -0.63300
O171        O  0.29234673  0.35528275  0.36453114    -0.58100
O172        O  0.28722853  0.41875880  0.31158499    -0.94800
O173        O  0.27244801  0.38988155  0.33603406    -0.93200
O174        O  0.37261016  0.42755210  0.35391040    -0.93600
O175        O  0.39696942  0.45732314  0.32751402    -0.92400
C176        C  0.27568467  0.41306348  0.32670102     1.16700
H177        H  0.33590148  0.34896529  0.34923675     0.32600
H178        H  0.37768770  0.42889411  0.29392058     0.43500
H179        H  0.25183190  0.34764007  0.30432603     0.37000
H180        H  0.32439225  0.30429505  0.28122785     0.33500
H181        H  0.43915366  0.44021293  0.32961232     0.25300
H182        H  0.40479543  0.37215814  0.25233098     0.31200
H183        H  0.25879360  0.30101597  0.24951258     0.37100
H184        H  0.35184179  0.42536888  0.35404376     0.31600
H185        H  0.28630107  0.37088505  0.36703543     0.30500
H186        H  0.21832974  0.30617044  0.33017341     0.32100
H187        H  0.21019290  0.28178798  0.29149812     0.31100
H188        H  0.38078255  0.46114242  0.32285221     0.35100
H189        H  0.33961636  0.46113424  0.30566165     0.27800
H190        H  0.36631829  0.28051072  0.32776282     0.32100
H191        H  0.24789203  0.25523664  0.26837164     0.34900
H192        H  0.27619258  0.33640456  0.37011776     0.27500
H193        H  0.35052559  0.46296488  0.28665131     0.40400
H194        H  0.43005186  0.39952573  0.28590997     0.30500
H195        H  0.43360735  0.40896263  0.32202152     0.38100
H196        H  0.22514563  0.27339702  0.30671403     0.29900
H197        H  0.37075639  0.35303344  0.24532489     0.30000
H198        H  0.33466181  0.25759663  0.31899833     0.30200
Zr199      Zr  0.00170536  0.31705829  0.20218354     2.17500
O200        O  0.45449277  0.27626294  0.19242988    -0.52100
O201        O  0.48259089  0.33066035  0.17725177    -0.75300
O202        O  0.45906903  0.30200341  0.22368742    -0.82100
O203        O  0.04512731  0.29154085  0.17426121    -0.83800
O204        O  0.47586961  0.33556533  0.24627643    -0.79500
O205        O  0.50636307  0.27550516  0.19707999    -0.91100
O206        O  0.00981968  0.37842022  0.16942797    -0.77100
O207        O  0.00988291  0.36603179  0.21090812    -0.86600
O208        O  0.04086379  0.35144436  0.18266935    -0.86200
O209        O  0.01838328  0.32259034  0.23198668    -0.73000
O210        O  0.04557496  0.31028013  0.20557944    -0.85100
Zr211      Zr  0.10855914  0.39981360  0.22510413     2.26400
Zr212      Zr  0.02907578  0.37309049  0.24013180     2.06300
Zr213      Zr  0.08443947  0.34447240  0.18601384     2.10000
Zr214      Zr  0.04919874  0.40068610  0.19173085     1.78800
O215        O  0.11222803  0.31634769  0.18295971    -0.93900
O216        O  0.01652397  0.42360193  0.19553575    -0.41700
O217        O  0.09286425  0.39374753  0.19527019    -0.78400
O218        O  0.06700427  0.40971521  0.22136148    -0.97100
O219        O  0.07012959  0.36438772  0.24235615    -0.90400
O220        O  0.10088591  0.35136975  0.21533536    -0.93200
C221        C  0.49047790  0.35381042  0.16729982     1.00500
C222        C  0.01884749  0.26990577  0.18028716     1.13500
C223        C  0.45556530  0.31117808  0.23854047     1.04300
O224        O  0.01722426  0.41414726  0.23509502    -0.95400
O225        O  0.06358484  0.39955879  0.26417070    -0.91100
O226        O  0.11248993  0.41841550  0.25450622    -0.84300
C227        C  0.09288147  0.41437846  0.26639393     1.10900
O228        O  0.02268178  0.26443262  0.24153914    -0.97300
Zr229      Zr  0.06280257  0.31686039  0.23479671     1.88900
O230        O  0.14281992  0.38688162  0.23971072    -0.74000
O231        O  0.00943542  0.37696435  0.26856883    -0.53300
O232        O  0.05796117  0.30608036  0.26563698    -0.97900
O233        O  0.07513299  0.27874812  0.22329394    -0.55100
O234        O  0.11361798  0.33662538  0.24703462    -0.74500
C235        C  0.13902308  0.36216537  0.24654716     0.97800
O236        O  0.14093921  0.45553703  0.22342686    -0.63300
O237        O  0.08935287  0.35497386  0.15506256    -0.58100
O238        O  0.15230862  0.41977657  0.20667934    -0.94800
O239        O  0.14056664  0.38738812  0.18369619    -0.93200
O240        O  0.07933634  0.42506613  0.16590362    -0.93600
O241        O  0.08019924  0.45642792  0.19286575    -0.92400
C242        C  0.15960351  0.41198481  0.19251032     1.16700
H243        H  0.03570711  0.34693028  0.17063392     0.32600
H244        H  0.07296430  0.43027409  0.22503108     0.43500
H245        H  0.11929661  0.34974177  0.21534609     0.37000
H246        H  0.00351785  0.30671518  0.23934233     0.33500
H247        H  0.01809088  0.43411849  0.18445295     0.25300
H248        H  0.99067902  0.37841949  0.26647284     0.31200
H249        H  0.04167105  0.31046001  0.26951628     0.37100
H250        H  0.06741600  0.43294683  0.15970315     0.31600
H251        H  0.10755328  0.35341971  0.15151638     0.30500
H252        H  0.13433430  0.33211804  0.18332998     0.32100
H253        H  0.08638930  0.27537308  0.23278274     0.31100
H254        H  0.10122654  0.46066326  0.19581009     0.35100
H255        H  0.12810864  0.46390580  0.22797595     0.27800
H256        H  0.43869346  0.28260951  0.19279037     0.32100
H257        H  0.00934203  0.25721311  0.23111331     0.34900
H258        H  0.07164633  0.33678899  0.14973139     0.27500
H259        H  0.15724268  0.46102962  0.23224086     0.40400
H260        H  0.99460847  0.40442404  0.23658591     0.30500
H261        H  0.99515014  0.40615251  0.19568618     0.38100
H262        H  0.09100256  0.28970020  0.21433332     0.29900
H263        H  0.00200177  0.35684375  0.27419077     0.30000
H264        H  0.44762449  0.25972722  0.20112958     0.30200
Zr265      Zr  0.33607928  0.49262013  0.15229646     2.17500
O266        O  0.28923766  0.44443468  0.15934727    -0.52100
O267        O  0.34737268  0.46926268  0.17672233    -0.75300
O268        O  0.32383458  0.45023774  0.13301272    -0.82100
O269        O  0.30250346  0.03350387  0.17697550    -0.83800
O270        O  0.35938177  0.47033424  0.11165294    -0.79500
O271        O  0.29055766  0.48941187  0.16314522    -0.91100
O272        O  0.39476981  0.50241277  0.18712643    -0.77100
O273        O  0.38650247  0.00338147  0.14466951    -0.86600
O274        O  0.36709322  0.03025468  0.17266392    -0.86200
O275        O  0.34153874  0.00876052  0.12235985    -0.73000
O276        O  0.32600521  0.03330725  0.14845990    -0.85100
Zr277      Zr  0.41600584  0.10127335  0.13115326     2.26400
Zr278      Zr  0.39394634  0.02272214  0.11573828     2.06300
Zr279      Zr  0.35796460  0.07232271  0.16885154     2.10000
Zr280      Zr  0.41828087  0.04246927  0.16484003     1.78800
O281        O  0.33081485  0.10072236  0.17331825    -0.93900
O282        O  0.44382886  0.01267405  0.15955153    -0.41700
O283        O  0.40920161  0.08453639  0.16078961    -0.78400
O284        O  0.42811427  0.06143634  0.13545208    -0.97100
O285        O  0.38306612  0.06301979  0.11144838    -0.90400
O286        O  0.36538675  0.09003084  0.13973289    -0.93200
C287        C  0.36873419  0.47764832  0.18809940     1.00500
C288        C  0.28291186  0.50605170  0.17182935     1.13500
C289        C  0.33624096  0.44815966  0.11907556     1.04300
O290        O  0.43699094  0.01420219  0.12143181    -0.95400
O291        O  0.41991440  0.05810809  0.09202644    -0.91100
O292        O  0.43587056  0.10642866  0.10169303    -0.84300
C293        C  0.43349213  0.08723767  0.08986117     1.10900
O294        O  0.28225345  0.01009498  0.11092565    -0.97300
Zr295      Zr  0.33293023  0.05146469  0.11953120     1.88900
O296        O  0.39920969  0.13281774  0.11710893    -0.74000
O297        O  0.40031313  0.00365086  0.08772325    -0.53300
O298        O  0.32349903  0.04535908  0.08844582    -0.97900
O299        O  0.29474505  0.06458672  0.12974937    -0.55100
O300        O  0.35315569  0.10058220  0.10522970    -0.74500
C301        C  0.37610635  0.12749300  0.10769177     0.97800
O302        O  0.47175798  0.13517637  0.13207607    -0.63300
O303        O  0.36387187  0.07334671  0.20022150    -0.58100
O304        O  0.43138152  0.14507637  0.14867540    -0.94800
O305        O  0.40103392  0.12783151  0.17276623    -0.93200
O306        O  0.43782498  0.06711151  0.19286695    -0.93600
O307        O  0.47405666  0.07568771  0.16635613    -0.92400
C308        C  0.42399665  0.14901489  0.16384850     1.16700
H309        H  0.36162284  0.02345969  0.18451302     0.32600
H310        H  0.44920570  0.06853190  0.13236505     0.43500
H311        H  0.36225614  0.10745409  0.13968596     0.37000
H312        H  0.32660257  0.99303382  0.11480896     0.33500
H313        H  0.45553627  0.01488354  0.17030511     0.25300
H314        H  0.40332862  0.98602342  0.09023819     0.31200
H315        H  0.32943791  0.03005000  0.08492480     0.37100
H316        H  0.41931827  0.06400346  0.19925332     0.31600
H317        H  0.37228007  0.09512578  0.20353340     0.30500
H318        H  0.33289013  0.10547478  0.18587794     0.32100
H319        H  0.30668439  0.08663253  0.13281193     0.31100
H320        H  0.47745641  0.09671654  0.16502890     0.35100
H321        H  0.47740180  0.13679573  0.14448367     0.27800
H322        H  0.29556454  0.42886986  0.16117945     0.32100
H323        H  0.27077931  0.02022826  0.10688813     0.34900
H324        H  0.34252990  0.06289653  0.20474468     0.27500
H325        H  0.48038209  0.12298347  0.12696342     0.40400
H326        H  0.45119676  0.52246090  0.11147646     0.30500
H327        H  0.42714534  0.99097224  0.15947840     0.38100
H328        H  0.28757281  0.05407879  0.14101255     0.29900
H329        H  0.38010866  0.99472815  0.08179507     0.30000
H330        H  0.27607958  0.43751485  0.14883667     0.30200
Zr331      Zr  0.34014993  0.33358742  0.03586084     2.17500
O332        O  0.29915185  0.34446496  0.02841498    -0.52100
O333        O  0.35407801  0.36478441  0.00976181    -0.75300
O334        O  0.33186603  0.36434715  0.05758155    -0.82100
O335        O  0.30726054  0.26085012  0.00938083    -0.83800
O336        O  0.38052174  0.39377786  0.06525522    -0.79500
O337        O  0.29385219  0.29088982  0.02505623    -0.91100
O338        O  0.40382138  0.38078036  0.00257128    -0.77100
O339        O  0.39147343  0.37002746  0.04369805    -0.86600
O340        O  0.37194027  0.32408351  0.01644671    -0.86200
O341        O  0.34441733  0.32164792  0.06561280    -0.73000
O342        O  0.32784344  0.28130047  0.03974883    -0.85100
Zr343      Zr  0.41694031  0.29917271  0.05860161     2.26400
Zr344      Zr  0.39680765  0.35793902  0.07293975     2.06300
Zr345      Zr  0.35993091  0.27240022  0.02025041     2.10000
Zr346      Zr  0.42348096  0.36111934  0.02470050     1.78800
O347        O  0.33125601  0.21680140  0.01754368    -0.93900
O348        O  0.45073797  0.41632290  0.02995020    -0.41700
O349        O  0.41137321  0.30935015  0.02889658    -0.78400
O350        O  0.43082294  0.35128605  0.05424609    -0.97100
O351        O  0.38401312  0.30630229  0.07725492    -0.90400
O352        O  0.36584486  0.26168792  0.04961169    -0.93200
C353        C  0.37741254  0.37815441  0.99962679     1.00500
C354        C  0.28785973  0.26990310  0.01383423     1.13500
C355        C  0.35238675  0.38613137  0.06679425     1.04300
O356        O  0.44471781  0.40579837  0.07793060    -0.95400
O357        O  0.42659277  0.35389623  0.09611518    -0.91100
O358        O  0.43665710  0.31612306  0.08812272    -0.84300
C359        C  0.43734662  0.33599306  0.09901038     1.10900
O360        O  0.28312625  0.26233587  0.07729063    -0.97300
Zr361      Zr  0.33338299  0.26969819  0.06896415     1.88900
O362        O  0.39842913  0.25159086  0.07333444    -0.74000
O363        O  0.36950333  0.35603710  0.09953953    -0.53300
O364        O  0.32484571  0.27128467  0.09992259    -0.97900
O365        O  0.29234225  0.22008291  0.05883902    -0.55100
O366        O  0.35049978  0.23757031  0.08317651    -0.74500
C367        C  0.37413294  0.23400856  0.08189344     0.97800
O368        O  0.47198395  0.31685477  0.06021801    -0.63300
O369        O  0.36772163  0.27734881  0.98898948    -0.58100
O370        O  0.43244405  0.27199024  0.03971071    -0.94800
O371        O  0.40183859  0.25867468  0.01569522    -0.93200
O372        O  0.44646895  0.35653434  0.99785324    -0.93600
O373        O  0.47837566  0.37817282  0.02516275    -0.92400
C374        C  0.42493595  0.26047449  0.02454467     1.16700
H375        H  0.36740333  0.32490600  0.00441482     0.32600
H376        H  0.45188075  0.36466691  0.05777646     0.43500
H377        H  0.36192470  0.24088734  0.04981709     0.37000
H378        H  0.33032187  0.32387779  0.07321093     0.33500
H379        H  0.46047326  0.42539157  0.01870680     0.25300
H380        H  0.38520728  0.36397570  0.10885441     0.31200
H381        H  0.31294896  0.24953492  0.10346991     0.37100
H382        H  0.45492028  0.37684073  0.99229361     0.31600
H383        H  0.36474885  0.25725872  0.98509602     0.30500
H384        H  0.32307834  0.21289872  0.00556138     0.32100
H385        H  0.30217050  0.21361984  0.04989628     0.31100
H386        H  0.47942106  0.35946701  0.02777960     0.35100
H387        H  0.47941379  0.32026161  0.04809864     0.27800
H388        H  0.30835802  0.36699778  0.02899106     0.32100
H389        H  0.27700419  0.27091423  0.06755849     0.34900
H390        H  0.34965212  0.27802671  0.98433117     0.27500
H391        H  0.48118720  0.33783863  0.06505762     0.40400
H392        H  0.44847232  0.41720538  0.06695954     0.30500
H393        H  0.43448047  0.42191677  0.03135380     0.38100
H394        H  0.27833455  0.22479770  0.05219223     0.29900
H395        H  0.35651145  0.33394712  0.10207784     0.30000
H396        H  0.28407744  0.33633219  0.03803955     0.30200
Zr397      Zr  0.18371327  0.17145105  0.81695438     2.17500
O398        O  0.18447721  0.21723575  0.82833904    -0.52100
O399        O  0.15310568  0.16203000  0.84385941    -0.75300
O400        O  0.16002008  0.19104616  0.79682909    -0.82100
O401        O  0.25323183  0.19436661  0.84266033    -0.83800
O402        O  0.13836866  0.15529409  0.77550156    -0.79500
O403        O  0.23398335  0.21372793  0.82318802    -0.91100
O404        O  0.13028903  0.11150571  0.85065068    -0.77100
O405        O  0.14058684  0.12280030  0.80976906    -0.86600
O406        O  0.18767493  0.13626454  0.83620816    -0.86200
O407        O  0.19181744  0.16353355  0.78684986    -0.73000
O408        O  0.23278654  0.17474819  0.81200216    -0.85100
Zr409      Zr  0.19967010  0.08233641  0.79308982     2.26400
Zr410      Zr  0.14874925  0.11396620  0.78025014     2.06300
Zr411      Zr  0.23643594  0.13987672  0.83136906     2.10000
Zr412      Zr  0.14492764  0.08730064  0.82842769     1.78800
O413        O  0.29206328  0.16302886  0.83441784    -0.93900
O414        O  0.08916421  0.06486975  0.82635761    -0.41700
O415        O  0.19366760  0.09084776  0.82316850    -0.78400
O416        O  0.15008668  0.07678641  0.79853862    -0.97100
O417        O  0.19759124  0.11839621  0.77447555    -0.90400
O418        O  0.24269807  0.13051048  0.80181171    -0.93200
C419        C  0.13671266  0.13906349  0.85385936     1.00500
C420        C  0.25019441  0.21699419  0.83655270     1.13500
C421        C  0.14504769  0.18094402  0.78258004     1.04300
O422        O  0.09539510  0.07818647  0.78790902    -0.95400
O423        O  0.14971816  0.08226163  0.75654696    -0.91100
O424        O  0.18050214  0.06290863  0.76402399    -0.84300
C425        C  0.16262268  0.06619062  0.75337425     1.10900
O426        O  0.25543179  0.21785885  0.77336694    -0.97300
Zr427      Zr  0.24047552  0.16606329  0.78254748     1.88900
O428        O  0.24529866  0.09329382  0.77704110    -0.74000
O429        O  0.12457000  0.11033789  0.75224825    -0.53300
O430        O  0.24183577  0.17224920  0.75120563    -0.97900
O431        O  0.29100344  0.20588496  0.79238477    -0.55100
O432        O  0.27024246  0.14415513  0.77073289    -0.74500
C433        C  0.26801303  0.11761530  0.77082416     0.97800
O434        O  0.17148078  0.02632521  0.79366909    -0.63300
O435        O  0.23088162  0.12997260  0.86237241    -0.58100
O436        O  0.22478402  0.06214359  0.81028765    -0.94800
O437        O  0.24647455  0.09480026  0.83322233    -0.93200
O438        O  0.15107125  0.06495854  0.85504372    -0.93600
O439        O  0.11874448  0.03143945  0.82831224    -0.92400
C440        C  0.24021675  0.07000425  0.82436786     1.16700
H441        H  0.18795929  0.14152018  0.84822296     0.32600
H442        H  0.13397067  0.05660270  0.79530907     0.43500
H443        H  0.26194575  0.13063708  0.80161868     0.37000
H444        H  0.19353916  0.17939813  0.77927186     0.33500
H445        H  0.08120640  0.05503783  0.83771984     0.25300
H446        H  0.10478946  0.10951722  0.75485936     0.31200
H447        H  0.23790809  0.15236132  0.74634605     0.37100
H448        H  0.17327169  0.07151992  0.85560761     0.31600
H449        H  0.24342865  0.12020474  0.86479503     0.30500
H450        H  0.30029132  0.18521008  0.83253566     0.32100
H451        H  0.30541563  0.20728573  0.78317092     0.31100
H452        H  0.13513413  0.02643206  0.82575549     0.35100
H453        H  0.17084953  0.02056564  0.80596734     0.27800
H454        H  0.16277987  0.21250833  0.82845362     0.32100
H455        H  0.25077644  0.22713927  0.78345147     0.34900
H456        H  0.24244465  0.15049959  0.86785919     0.27500
H457        H  0.14987446  0.02045632  0.79111077     0.40400
H458        H  0.08876027  0.06099292  0.77956640     0.30500
H459        H  0.08557114  0.08253355  0.82630289     0.38100
H460        H  0.29587254  0.19685964  0.80239881     0.29900
H461        H  0.13741741  0.13035445  0.74654740     0.30000
H462        H  0.19454798  0.23320065  0.81935484     0.30200
Zr463      Zr  0.01620769  0.17819062  0.70616037     2.17500
O464        O  0.06148144  0.22589423  0.69718285    -0.52100
O465        O  0.03942609  0.17288430  0.67892960    -0.75300
O466        O  0.05825391  0.19475796  0.72717916    -0.82100
O467        O  0.47535615  0.20600371  0.67928479    -0.83800
O468        O  0.04210068  0.15713058  0.74724581    -0.79500
O469        O  0.00488390  0.21847230  0.70130423    -0.91100
O470        O  0.01319439  0.12293587  0.67044751    -0.77100
O471        O  0.51566797  0.13455059  0.70983727    -0.86600
O472        O  0.48335913  0.15131828  0.68445843    -0.86200
O473        O  0.50117555  0.16945761  0.73521286    -0.73000
O474        O  0.47261016  0.18389285  0.71093359    -0.85100
Zr475      Zr  0.41390084  0.08810036  0.72367645     2.26400
Zr476      Zr  0.49554400  0.11940516  0.73849134     2.06300
Zr477      Zr  0.43659910  0.15194516  0.68926204     2.10000
Zr478      Zr  0.47838140  0.10214734  0.68885035     1.78800
O479        O  0.40750772  0.17894371  0.68841625    -0.93900
O480        O  0.51007101  0.07830816  0.69242322    -0.41700
O481        O  0.43151010  0.10255101  0.69430939    -0.78400
O482        O  0.45934151  0.08515083  0.71773254    -0.97100
O483        O  0.44971516  0.12117527  0.74451851    -0.90400
O484        O  0.41812871  0.13698356  0.71801136    -0.93200
C485        C  0.03396964  0.15095984  0.66821007     1.00500
C486        C  0.99602865  0.22274596  0.68670781     1.13500
C487        C  0.06190282  0.18302413  0.74108359     1.04300
O488        O  0.51047486  0.08187525  0.73007684    -0.95400
O489        O  0.46131523  0.08809699  0.76159860    -0.91100
O490        O  0.41233602  0.06330167  0.75137564    -0.84300
C491        C  0.43246326  0.06884647  0.76333340     1.10900
O492        O  0.48890506  0.22063039  0.75046129    -0.97300
Zr493      Zr  0.45352633  0.16923217  0.73960837     1.88900
O494        O  0.37672467  0.09413129  0.74069730    -0.74000
O495        O  0.51801944  0.11011898  0.76420163    -0.53300
O496        O  0.45734673  0.16282602  0.77060914    -0.97900
O497        O  0.44040124  0.20976445  0.73774904    -0.55100
O498        O  0.40016435  0.14383991  0.74910780    -0.74500
C499        C  0.37660731  0.11672572  0.74831086     0.97800
O500        O  0.38484311  0.03264961  0.71957300    -0.63300
O501        O  0.43195161  0.14474559  0.65795042    -0.58100
O502        O  0.37053811  0.07022134  0.70492405    -0.94800
O503        O  0.38189450  0.10776107  0.68497477    -0.93200
O504        O  0.45929247  0.08642246  0.65939203    -0.93600
O505        O  0.44553428  0.04771073  0.68264585    -0.92400
C506        C  0.36364171  0.08096484  0.69182040     1.16700
H507        H  0.48929600  0.15876628  0.67285048     0.32600
H508        H  0.45520484  0.06437913  0.71950277     0.43500
H509        H  0.39861321  0.13637841  0.71826539     0.37000
H510        H  0.01162345  0.18199864  0.74388734     0.33500
H511        H  0.50756349  0.06702291  0.68142860     0.25300
H512        H  0.53826667  0.11284970  0.76067943     0.31200
H513        H  0.45924062  0.18156008  0.77605689     0.37100
H514        H  0.47411663  0.08139601  0.65385249     0.31600
H515        H  0.40956059  0.13457337  0.65555066     0.30500
H516        H  0.39923317  0.17717750  0.70026685     0.32100
H517        H  0.42660544  0.20637834  0.74771494     0.31100
H518        H  0.42660430  0.04161001  0.68947674     0.35100
H519        H  0.39840458  0.02506606  0.72395594     0.27800
H520        H  0.07890844  0.22183146  0.69727474     0.32100
H521        H  0.50432530  0.23034420  0.74112150     0.34900
H522        H  0.44029631  0.16565432  0.65323203     0.27500
H523        H  0.36779182  0.02525897  0.72805549     0.40400
H524        H  0.02758183  0.09003805  0.73084317     0.30500
H525        H  0.02610036  0.09008251  0.69570933     0.38100
H526        H  0.42686942  0.20437437  0.72745094     0.29900
H527        H  0.52283137  0.12730229  0.77230121     0.30000
H528        H  0.06587943  0.24058507  0.70684065     0.30200
Zr529      Zr  0.02691889  0.32390073  0.48067363     2.17500
O530        O  0.07003142  0.31976798  0.49244748    -0.52100
O531        O  0.04802760  0.35453100  0.50748862    -0.75300
O532        O  0.07067615  0.34385989  0.46082152    -0.82100
O533        O  0.47695053  0.25746131  0.50957835    -0.83800
O534        O  0.05616614  0.36178485  0.43794454    -0.79500
O535        O  0.01167373  0.27261034  0.48824621    -0.91100
O536        O  0.02297196  0.38106987  0.51258568    -0.77100
O537        O  0.51625667  0.36463731  0.47351073    -0.86600
O538        O  0.48380544  0.31958098  0.50081271    -0.86200
O539        O  0.50321959  0.31123801  0.45141313    -0.73000
O540        O  0.47495481  0.27323877  0.47733610    -0.85100
Zr541      Zr  0.41488649  0.30616570  0.45944801     2.26400
Zr542      Zr  0.49656963  0.35405625  0.44449767     2.06300
Zr543      Zr  0.43767413  0.27136857  0.49746241     2.10000
Zr544      Zr  0.47811259  0.36233589  0.49314752     1.78800
O545        O  0.40796390  0.21559455  0.49822950    -0.93900
O546        O  0.51133539  0.41757761  0.49051469    -0.48900
O547        O  0.43179099  0.31426987  0.48920552    -0.78400
O548        O  0.45997847  0.35524653  0.46368507    -0.97100
O549        O  0.45114072  0.30553965  0.44001409    -0.90400
O550        O  0.42011772  0.26347396  0.46835923    -0.93200
C551        C  0.04215553  0.37232161  0.51688897     1.00500
C552        C  0.00374496  0.26301540  0.50357408     1.13500
C553        C  0.07530825  0.35623792  0.44584078     1.04300
O554        O  0.51429398  0.40804278  0.44999756    -0.95400
O555        O  0.46283458  0.35167627  0.42127349    -0.91100
O556        O  0.41324180  0.32432153  0.43044452    -0.84300
C557        C  0.43375519  0.34000865  0.41901660     1.10900
O558        O  0.49090305  0.24423369  0.44052691    -0.97300
Zr559      Zr  0.45603345  0.26299047  0.44842877     1.88900
O560        O  0.37781181  0.25881980  0.44517380    -0.74000
O561        O  0.51477015  0.37566852  0.41574241    -0.53300
O562        O  0.46347214  0.26282780  0.41727367    -0.97900
O563        O  0.43855087  0.21055514  0.45750279    -0.55100
O564        O  0.40336727  0.23363808  0.43760949    -0.74500
C565        C  0.37893822  0.23588218  0.43864627     0.97800
O566        O  0.38753565  0.33508886  0.45864452    -0.63300
O567        O  0.43147258  0.27450867  0.52854700    -0.58100
O568        O  0.37167340  0.28494374  0.47828023    -0.94800
O569        O  0.38240322  0.26158665  0.50015571    -0.93200
O570        O  0.45291568  0.35753705  0.52090709    -0.93600
O571        O  0.44832857  0.38861041  0.49380611    -0.92400
C572        C  0.36394078  0.26877028  0.49193684     1.16700
H573        H  0.48927438  0.31964517  0.51276085     0.32600
H574        H  0.45600308  0.37151598  0.46040977     0.43500
H575        H  0.40097569  0.24433258  0.46871307     0.37000
H576        H  0.02370979  0.30825315  0.44374391     0.33500
H577        H  0.51039132  0.42588836  0.50203236     0.25300
H578        H  0.53470264  0.39480561  0.41751318     0.31200
H579        H  0.48240344  0.28258848  0.41497897     0.37100
H580        H  0.46605577  0.37730493  0.52692618     0.31600
H581        H  0.42693503  0.29144186  0.52993171     0.30500
H582        H  0.38893787  0.21082982  0.50462486     0.32100
H583        H  0.41716922  0.20277577  0.46158068     0.31100
H584        H  0.42664984  0.37205203  0.49245046     0.35100
H585        H  0.38170575  0.33643354  0.47073604     0.27800
H586        H  0.08833542  0.34055205  0.49179355     0.32100
H587        H  0.50787195  0.25383109  0.44909106     0.34900
H588        H  0.41180117  0.25576320  0.53129743     0.27500
H589        H  0.40358879  0.35638385  0.45600201     0.40400
H590        H  0.04620532  0.41799771  0.44921387     0.30500
H591        H  0.04270817  0.42405687  0.48655263     0.38100
H592        H  0.45035846  0.21266971  0.46819810     0.29900
H593        H  0.52006515  0.36147997  0.40974254     0.30000
H594        H  0.07403079  0.30731835  0.48396305     0.30200
Zr595      Zr  0.18865025  0.48602597  0.37000283     2.17500
O596        O  0.19500992  0.44435883  0.35814259    -0.52100
O597        O  0.15832532  0.46354908  0.34320364    -0.75300
O598        O  0.16764834  0.44192853  0.38936679    -0.82100
O599        O  0.25450087  0.03513135  0.34515219    -0.83800
O600        O  0.14591297  0.45445458  0.41140746    -0.79500
O601        O  0.24179133  0.50359288  0.36497265    -0.91100
O602        O  0.13118376  0.48776412  0.33772473    -0.77100
O603        O  0.14061649  0.99378086  0.37762409    -0.86600
O604        O  0.18734857  0.02721995  0.35050105    -0.86200
O605        O  0.19299105  0.00530303  0.39991374    -0.73000
O606        O  0.23265601  0.03421932  0.37485964    -0.85100
Zr607      Zr  0.19979675  0.09377761  0.39345197     2.26400
Zr608      Zr  0.14973696  0.01184160  0.40701793     2.06300
Zr609      Zr  0.23617290  0.07221997  0.35526061     2.10000
Zr610      Zr  0.14424353  0.03282615  0.35870703     1.78800
O611        O  0.29198831  0.10477143  0.35424540    -0.93900
O612        O  0.08906153  0.99891279  0.36266847    -0.41700
O613        O  0.19291897  0.07808225  0.36346854    -0.78400
O614        O  0.15024298  0.04975158  0.38843335    -0.97100
O615        O  0.19861913  0.05643465  0.41230534    -0.90400
O616        O  0.24278526  0.08855247  0.38463542    -0.93200
C617        C  0.13962710  0.46824170  0.33395716     1.00500
C618        C  0.25310448  0.51160529  0.34996288     1.13500
C619        C  0.15333787  0.43633611  0.40385207     1.04300
O620        O  0.09660961  0.99744536  0.40037849    -0.95400
O621        O  0.15322662  0.04480896  0.43130100    -0.91100
O622        O  0.18064739  0.09430817  0.42251910    -0.84300
C623        C  0.16480228  0.07375430  0.43386035     1.10900
O624        O  0.25968234  0.01659938  0.41230035    -0.97300
Zr625      Zr  0.24167635  0.05178849  0.40412566     1.88900
O626        O  0.24678706  0.12976692  0.40859173    -0.74000
O627        O  0.12333765  0.99003155  0.43435121    -0.53300
O628        O  0.23890405  0.04566245  0.43545223    -0.97900
O629        O  0.29446817  0.06885483  0.39514064    -0.55100
O630        O  0.27165761  0.10382320  0.41566130    -0.74500
C631        C  0.26956557  0.12824297  0.41510256     0.97800
O632        O  0.17141112  0.12150964  0.39501519    -0.63300
O633        O  0.23595521  0.07827134  0.32401200    -0.58100
O634        O  0.22014945  0.13611357  0.37415472    -0.94800
O635        O  0.24515244  0.12666499  0.35240821    -0.93200
O636        O  0.14653547  0.05700396  0.33106719    -0.93600
O637        O  0.11807754  0.06261478  0.35758986    -0.92400
C638        C  0.23680189  0.14428324  0.36057661     1.16700
H639        H  0.18735195  0.02211662  0.33848717     0.32600
H640        H  0.13432852  0.05432271  0.39164501     0.43500
H641        H  0.26210673  0.10750514  0.38467556     0.37000
H642        H  0.19466078  0.99078638  0.40728382     0.33500
H643        H  0.07968639  0.99991887  0.35156824     0.25300
H644        H  0.10470223  0.97032138  0.43140648     0.31200
H645        H  0.25992609  0.06023852  0.43968180     0.37100
H646        H  0.16351925  0.07843025  0.33237771     0.31600
H647        H  0.21739213  0.07998898  0.32178613     0.30500
H648        H  0.30019657  0.09159113  0.35826642     0.32100
H649        H  0.30350909  0.09099781  0.39270552     0.31100
H650        H  0.13385135  0.08347295  0.36134024     0.35100
H651        H  0.16523615  0.12257477  0.38297326     0.27800
H652        H  0.17442028  0.42569652  0.35865025     0.32100
H653        H  0.27699056  0.02823572  0.42045400     0.34900
H654        H  0.25343560  0.09910483  0.32183044     0.27500
H655        H  0.18685622  0.14287866  0.39812417     0.40400
H656        H  0.08943230  0.46095388  0.40301858     0.30500
H657        H  0.08611149  0.97794781  0.36283319     0.38100
H658        H  0.29249505  0.05933183  0.38361464     0.29900
H659        H  0.13681540  0.98433890  0.44081440     0.30000
H660        H  0.20758592  0.44088961  0.36675491     0.30200
Zr661      Zr  0.17641182  0.50224343  0.65367043     2.17500
O662        O  0.21554107  0.05511145  0.65646046    -0.52100
O663        O  0.16375344  0.01454278  0.67787700    -0.75300
O664        O  0.18873110  0.03972110  0.63097270    -0.82100
O665        O  0.21234272  0.46380513  0.67986765    -0.83800
O666        O  0.14007012  0.01604264  0.62382033    -0.79500
O667        O  0.22781437  0.00717151  0.66447082    -0.91100
O668        O  0.10991130  0.48485856  0.68461568    -0.77100
O669        O  0.12521274  0.48470493  0.64373442    -0.86600
O670        O  0.14432848  0.46109145  0.67296546    -0.86200
O671        O  0.17657986  0.48554906  0.62420663    -0.73000
O672        O  0.19138036  0.46370755  0.65182591    -0.85100
Zr673      Zr  0.10683396  0.39043443  0.62908504     2.26400
Zr674      Zr  0.12475200  0.46744446  0.61461414     2.06300
Zr675      Zr  0.15814306  0.42208189  0.67031009     2.10000
Zr676      Zr  0.09334770  0.44416414  0.66265894     1.78800
O677        O  0.18489778  0.39477656  0.67865448    -0.93900
O678        O  0.06134480  0.46773651  0.65928831    -0.41700
O679        O  0.10769843  0.40573304  0.65889402    -0.78400
O680        O  0.09000422  0.42700729  0.63284234    -0.97100
O681        O  0.14171473  0.43120732  0.61169205    -0.90400
O682        O  0.15680975  0.40579175  0.64108838    -0.93200
C683        C  0.13916322  0.00416085  0.68697524     1.00500
C684        C  0.23020157  0.49324945  0.67700315     1.13500
C685        C  0.16710514  0.03801074  0.62147708     1.04300
O686        O  0.07687086  0.46462335  0.60540555    -0.95400
O687        O  0.10149765  0.43416695  0.58990265    -0.91100
O688        O  0.08987237  0.38648875  0.59850298    -0.84300
C689        C  0.09090097  0.40557247  0.58699695     1.10900
O690        O  0.24286983  0.49173573  0.62105184    -0.97300
Zr691      Zr  0.19145169  0.44703460  0.62312125     1.88900
O692        O  0.13072169  0.36424709  0.61562201    -0.74000
O693        O  0.15239194  0.49687777  0.58927151    -0.53300
O694        O  0.20887707  0.45900582  0.59321829    -0.97900
O695        O  0.22924534  0.43610353  0.63613917    -0.55100
O696        O  0.18063596  0.39942735  0.60952294    -0.74500
C697        C  0.15738595  0.37226516  0.60939211     0.97800
O698        O  0.05241811  0.35328278  0.62444826    -0.63300
O699        O  0.14618682  0.42134891  0.70095970    -0.58100
O700        O  0.08920708  0.34754787  0.64793533    -0.94800
O701        O  0.11551696  0.36591499  0.67331908    -0.93200
O702        O  0.07256749  0.41457400  0.68898718    -0.93600
O703        O  0.03879452  0.40598918  0.66107273    -0.92400
C704        C  0.09393449  0.34406820  0.66378660     1.16700
H705        H  0.14746356  0.46679184  0.68501068     0.32600
H706        H  0.06914217  0.41850598  0.62858288     0.43500
H707        H  0.16141978  0.38933328  0.64151329     0.37000
H708        H  0.19096626  0.50195166  0.61687814     0.33500
H709        H  0.07603330  0.49005028  0.65881046     0.25300
H710        H  0.13651484  0.49120912  0.58017228     0.31200
H711        H  0.19143243  0.44365435  0.58616306     0.37100
H712        H  0.06084089  0.42339640  0.69453231     0.31600
H713        H  0.12339371  0.41015432  0.70138913     0.30500
H714        H  0.18242419  0.38131699  0.66866266     0.32100
H715        H  0.24005953  0.43321477  0.62617706     0.31100
H716        H  0.03842172  0.38641252  0.65877839     0.35100
H717        H  0.04266309  0.34909603  0.63603042     0.27800
H718        H  0.23677445  0.05890804  0.65477550     0.32100
H719        H  0.24791565  0.50002922  0.63301216     0.34900
H720        H  0.15209396  0.40707924  0.70618128     0.27500
H721        H  0.05175846  0.33398963  0.62093896     0.40400
H722        H  0.06676857  0.46533741  0.61629213     0.30500
H723        H  0.05292896  0.46219297  0.64738726     0.38100
H724        H  0.21713545  0.41541837  0.64120463     0.29900
H725        H  0.16479152  0.48755917  0.58541471     0.30000
H726        H  0.21432437  0.05925904  0.66888651     0.30200
Zr727      Zr  0.18546353  0.16419568  0.53572361     2.17500
O728        O  0.23524524  0.16629035  0.53607443    -0.52100
O729        O  0.17175378  0.13261610  0.50955303    -0.75300
O730        O  0.18454967  0.12169161  0.55144972    -0.82100
O731        O  0.21947970  0.24024328  0.51283616    -0.83800
O732        O  0.16888222  0.12594765  0.57833087    -0.79500
O733        O  0.22937158  0.20219126  0.52048388    -0.91100
O734        O  0.12103991  0.11487694  0.50417271    -0.77100
O735        O  0.13501252  0.12804722  0.54515876    -0.86600
O736        O  0.15310755  0.17348738  0.51673694    -0.86200
O737        O  0.18392647  0.17813136  0.56542931    -0.73000
O738        O  0.19745344  0.21629049  0.54000035    -0.85100
Zr739      Zr  0.11075606  0.20030912  0.56058905     2.26400
Zr740      Zr  0.13218128  0.14257673  0.57450294     2.06300
Zr741      Zr  0.16474404  0.22530351  0.52122569     2.10000
Zr742      Zr  0.10261111  0.13667706  0.52633513     1.78800
O743        O  0.19141952  0.28077857  0.51782812    -0.93900
O744        O  0.07498529  0.08199414  0.53248291    -0.41700
O745        O  0.11436124  0.18849194  0.53080227    -0.78400
O746        O  0.09662057  0.14761734  0.55620418    -0.97100
O747        O  0.14480831  0.19422417  0.57913520    -0.90400
O748        O  0.16092295  0.23676936  0.55059110    -0.93200
C749        C  0.14726351  0.11752458  0.50036468     1.00500
C750        C  0.23742052  0.22833921  0.51391287     1.13500
C751        C  0.17960244  0.11446867  0.56749323     1.04300
O752        O  0.08726205  0.09130089  0.57322156    -0.95400
O753        O  0.10685806  0.15241384  0.59871794    -0.91100
O754        O  0.08983995  0.18413511  0.58957291    -0.84300
C755        C  0.09258885  0.16739787  0.60114304     1.10900
O756        O  0.24343695  0.23573922  0.57977769    -0.97300
Zr757      Zr  0.19484943  0.22974921  0.56921195     1.88900
O758        O  0.13174529  0.24874557  0.57590774    -0.74000
O759        O  0.13860834  0.12066863  0.60122683    -0.53300
O760        O  0.19992460  0.23063617  0.60062465    -0.97900
O761        O  0.23629845  0.27713352  0.55728435    -0.55100
O762        O  0.18283214  0.26678509  0.58090474    -0.74500
C763        C  0.15840721  0.26879727  0.58158161     0.97800
O764        O  0.05596135  0.18359953  0.55918816    -0.63300
O765        O  0.15719950  0.22023800  0.48995154    -0.58100
O766        O  0.09449936  0.22874561  0.54355621    -0.94800
O767        O  0.12198530  0.23889199  0.51853142    -0.93200
O768        O  0.07864032  0.13896267  0.49944928    -0.93600
O769        O  0.04842609  0.12217304  0.52479636    -0.92400
C770        C  0.10012063  0.23859602  0.52807241     1.16700
H771        H  0.15666180  0.17180927  0.50465954     0.32600
H772        H  0.07578109  0.13433435  0.56002230     0.43500
H773        H  0.16478469  0.25753192  0.55039436     0.37000
H774        H  0.19976806  0.17698339  0.57198344     0.33500
H775        H  0.05877257  0.07917293  0.54084737     0.25300
H776        H  0.11750957  0.10597526  0.60521195     0.31200
H777        H  0.19081947  0.20881333  0.60387126     0.37100
H778        H  0.09188046  0.16026640  0.49543570     0.31600
H779        H  0.15868052  0.23975925  0.48630779     0.30500
H780        H  0.17826625  0.28470735  0.50988933     0.32100
H781        H  0.24326116  0.29197017  0.56703863     0.31100
H782        H  0.04740707  0.13940928  0.53040260     0.35100
H783        H  0.04532139  0.16153884  0.56206784     0.27800
H784        H  0.23146802  0.14636260  0.53130766     0.32100
H785        H  0.25463900  0.25655918  0.58494851     0.34900
H786        H  0.17612560  0.22117940  0.48533833     0.27500
H787        H  0.05199798  0.19363078  0.56916206     0.40400
H788        H  0.07352601  0.09110628  0.58252887     0.30500
H789        H  0.06363772  0.07228312  0.52164563     0.38100
H790        H  0.22585068  0.28436696  0.54928152     0.29900
H791        H  0.14670197  0.13752132  0.60987629     0.30000
H792        H  0.24030981  0.16613286  0.54844285     0.30200
C793        C  0.20362262  0.07798215  0.59980841    -0.02600
C794        C  0.17322288  0.05776562  0.60595514     0.07100
C795        C  0.14790374  0.05286914  0.59533548    -0.02700
C796        C  0.15323454  0.06406555  0.57845581    -0.02700
C797        C  0.18199182  0.08891810  0.57439914     0.07200
C798        C  0.20756783  0.09523836  0.58470830    -0.02900
Br799      Br  0.24730756  0.12898891  0.57850418    -0.01500
Br800      Br  0.24021705  0.08393850  0.61163467    -0.01600
Br801      Br  0.11989523  0.05077073  0.56195929    -0.01500
Br802      Br  0.10612166  0.03541931  0.60379266    -0.01500
C803        C  0.16372816  0.32720727  0.61347111    -0.02600
C804        C  0.16168315  0.34803979  0.60221118     0.07100
C805        C  0.16171341  0.34441826  0.58418033    -0.02700
C806        C  0.16304198  0.31934706  0.57734923    -0.02700
C807        C  0.16156195  0.29683683  0.58864238     0.07200
C808        C  0.16284967  0.30102445  0.60663162    -0.02900
Br809      Br  0.16263216  0.27046163  0.62170495    -0.01500
Br810      Br  0.16783427  0.33442572  0.63813133    -0.01600
Br811      Br  0.16828199  0.31659696  0.55273043    -0.01500
Br812      Br  0.15762687  0.37233649  0.56894478    -0.01500
C813        C  0.16290142  0.08519259  0.48276310    -0.02600
C814        C  0.15019132  0.10467990  0.48355905     0.07100
C815        C  0.14226313  0.11384980  0.46801879    -0.02700
C816        C  0.14665858  0.10337994  0.45188211    -0.02700
C817        C  0.15961604  0.08409527  0.45101168     0.07200
C818        C  0.16765917  0.07496639  0.46656591    -0.02900
Br819      Br  0.18677100  0.04979106  0.46581173    -0.01500
Br820      Br  0.17338002  0.07217363  0.50394786    -0.01600
Br821      Br  0.13385120  0.11488114  0.43097484    -0.01500
Br822      Br  0.12725708  0.14257650  0.46853002    -0.01500
C823        C  0.08727177  0.39738973  0.53756292    -0.02600
C824        C  0.05524926  0.38029838  0.53473661     0.07100
C825        C  0.03515023  0.37064163  0.54921236    -0.02700
C826        C  0.04701518  0.37678096  0.56625529    -0.02700
C827        C  0.07898654  0.39460228  0.56912731     0.07200
C828        C  0.09898890  0.40567760  0.55462736    -0.02900
Br829      Br  0.14232476  0.43381602  0.55794431    -0.01500
Br830      Br  0.11479585  0.41139292  0.51792788    -0.01600
Br831      Br  0.01918076  0.36267441  0.58575203    -0.01500
Br832      Br  0.49106931  0.33835998  0.54810672    -0.01500
C833        C  0.13167195  0.38921937  0.44280002    -0.02600
C834        C  0.10394558  0.36497193  0.43635311     0.07100
C835        C  0.10128076  0.35790939  0.41848391    -0.02700
C836        C  0.12179262  0.37991526  0.40679588    -0.02700
C837        C  0.14518877  0.40806123  0.41331717     0.07200
C838        C  0.15265807  0.41084781  0.43112129    -0.02900
Br839      Br  0.18930859  0.44656063  0.43953496    -0.01500
Br840      Br  0.13846090  0.39539553  0.46741801    -0.01600
Br841      Br  0.11492210  0.37362102  0.38219922    -0.01500
Br842      Br  0.06662629  0.32031278  0.41012820    -0.01500
C843        C  0.32780137  0.18973047  0.44477534    -0.02600
C844        C  0.34994515  0.20952265  0.43267985     0.07100
C845        C  0.34510395  0.20317671  0.41487796    -0.02700
C846        C  0.31875592  0.17649085  0.40909267    -0.02700
C847        C  0.29631050  0.15694460  0.42112772     0.07200
C848        C  0.30045472  0.16408745  0.43889595    -0.02900
Br849      Br  0.26848641  0.13866956  0.45503577    -0.01500
Br850      Br  0.33564296  0.19609922  0.46937653    -0.01600
Br851      Br  0.31437392  0.16661652  0.38470056    -0.01500
Br852      Br  0.37474449  0.23140230  0.39850854    -0.01500
C853        C  0.04206271  0.26811074  0.52670101    -0.02600
C854        C  0.02414240  0.25272602  0.51201402     0.07100
C855        C  0.03282435  0.23432224  0.50214202    -0.02700
C856        C  0.05926608  0.23220013  0.50639777    -0.02700
C857        C  0.07715376  0.24726149  0.52119201     0.07200
C858        C  0.06743784  0.26447661  0.53163938    -0.02900
Br859      Br  0.08821884  0.28315624  0.55310591    -0.01500
Br860      Br  0.03331334  0.29612757  0.53935568    -0.01600
Br861      Br  0.06960642  0.20683232  0.49229439    -0.01500
Br862      Br  0.00793901  0.21147648  0.48246960    -0.01500
C863        C  0.32423256  0.26047073  0.51543036    -0.02600
C864        C  0.33123430  0.25873942  0.49783208     0.07100
C865        C  0.30717366  0.25126485  0.48533291    -0.02700
C866        C  0.27713089  0.24409789  0.49052643    -0.02700
C867        C  0.27024639  0.24487214  0.50805466     0.07200
C868        C  0.29408082  0.25343062  0.52042522    -0.02900
Br869      Br  0.28495618  0.25490529  0.54454518    -0.01500
Br870      Br  0.35609235  0.27416676  0.53281756    -0.01600
Br871      Br  0.24423508  0.23108590  0.47372868    -0.01500
Br872      Br  0.31360878  0.24987799  0.46069628    -0.01500
C873        C  0.08187686  0.16788979  0.65017583    -0.02600
C874        C  0.05023626  0.15815925  0.65128986     0.07100
C875        C  0.03293202  0.15254994  0.63587554    -0.02700
C876        C  0.04682267  0.15577257  0.61958026    -0.02700
C877        C  0.07837836  0.16511391  0.61840235     0.07200
C878        C  0.09593279  0.17143791  0.63380029    -0.02900
Br879      Br  0.13940350  0.18542454  0.63259376    -0.01500
Br880      Br  0.10549516  0.17458703  0.67106933    -0.01600
Br881      Br  0.02169307  0.14485288  0.59894114    -0.01500
Br882      Br  0.49674922  0.14831622  0.63578665    -0.01500
C883        C  0.03581354  0.25714099  0.66485552    -0.02600
C884        C  0.01699790  0.25416282  0.67918963     0.07100
C885        C  0.02566117  0.28084683  0.68947912    -0.02700
C886        C  0.05177797  0.30969214  0.68524626    -0.02700
C887        C  0.07055821  0.31271233  0.67081318     0.07200
C888        C  0.06195719  0.28585096  0.66066700    -0.02900
Br889      Br  0.08694710  0.28754097  0.64122185    -0.01500
Br890      Br  0.02779786  0.22091617  0.65197829    -0.01600
Br891      Br  0.06114348  0.34526917  0.69911820    -0.01500
Br892      Br  0.00224614  0.27767143  0.71006550    -0.01500
C893        C  0.32447960  0.03010697  0.67871243    -0.02600
C894        C  0.33182211  0.05960617  0.68496667     0.07100
C895        C  0.30730750  0.06450530  0.68941463    -0.02700
C896        C  0.27633211  0.04041257  0.68801436    -0.02700
C897        C  0.26877100  0.01150823  0.68065498     0.07200
C898        C  0.29335284  0.00659710  0.67612767    -0.02900
Br899      Br  0.27270039  0.46220049  0.67288778    -0.01500
Br900      Br  0.35747578  0.02184024  0.67381047    -0.01600
Br901      Br  0.24380054  0.04634326  0.69729434    -0.01500
Br902      Br  0.31632107  0.10402905  0.69833850    -0.01500
C903        C  0.16194067  0.06713670  0.72074874    -0.02600
C904        C  0.15622734  0.05042722  0.73629853     0.07100
C905        C  0.14366839  0.01839352  0.73547284    -0.02700
C906        C  0.13689353  0.00316253  0.71935922    -0.02700
C907        C  0.14200798  0.01970601  0.70382037     0.07200
C908        C  0.15442542  0.05176361  0.70459753    -0.02900
Br909      Br  0.16089475  0.07452417  0.68344866    -0.01500
Br910      Br  0.18238630  0.11131698  0.72137915    -0.01600
Br911      Br  0.12285195  0.95979046  0.71880584    -0.01500
Br912      Br  0.13564769  0.99492817  0.75640763    -0.01500
C913        C  0.11095570  0.20299976  0.78018455    -0.02600
C914        C  0.13463567  0.19926269  0.77304580     0.07100
C915        C  0.13999272  0.20247726  0.75502458    -0.02700
C916        C  0.11739849  0.20157372  0.74393861    -0.02700
C917        C  0.09048376  0.19916972  0.75107698     0.07200
C918        C  0.08847281  0.20256863  0.76916412    -0.02900
Br919      Br  0.05236740  0.20119777  0.77903492    -0.01500
Br920      Br  0.10691628  0.20397232  0.80498184    -0.01600
Br921      Br  0.12013993  0.19658651  0.71931534    -0.01500
Br922      Br  0.17624927  0.20372470  0.74552287    -0.01500
C923        C  0.31811606  0.09071056  0.74907812    -0.02600
C924        C  0.34744449  0.11212178  0.75605290     0.07100
C925        C  0.34905671  0.13157751  0.76975844    -0.02700
C926        C  0.32322958  0.13403084  0.77402460    -0.02700
C927        C  0.29500317  0.11563945  0.76540954     0.07200
C928        C  0.29202931  0.09287411  0.75364511    -0.02900
Br929      Br  0.25224232  0.06515190  0.74356201    -0.01500
Br930      Br  0.31212098  0.05707355  0.73424469    -0.01600
Br931      Br  0.32672441  0.16168133  0.79249057    -0.01500
Br932      Br  0.38556587  0.15253484  0.78416875    -0.01500
C933        C  0.30722127  0.41016125  0.09671465    -0.02600
C934        C  0.32625528  0.41836890  0.11139342     0.07100
C935        C  0.34952936  0.41096050  0.11214117    -0.02700
C936        C  0.36211696  0.40883348  0.09651735    -0.02700
C937        C  0.34330794  0.39907849  0.08145245     0.07200
C938        C  0.31447291  0.39820464  0.08201792    -0.02900
Br939      Br  0.28698404  0.38543490  0.06241171    -0.01500
Br940      Br  0.27376957  0.41876266  0.09647076    -0.01600
Br941      Br  0.40647057  0.42782887  0.09601573    -0.01500
Br942      Br  0.37128884  0.41632157  0.13370482    -0.01500
C943        C  0.34686751  0.17786324  0.08811910    -0.02600
C944        C  0.37327015  0.20707563  0.08980226     0.07100
C945        C  0.40055978  0.20989135  0.09676622    -0.02700
C946        C  0.40243536  0.18359713  0.10022631    -0.02700
C947        C  0.37528013  0.15430481  0.10022533     0.07200
C948        C  0.34712816  0.15186445  0.09440333    -0.02900
Br949      Br  0.30792944  0.11387592  0.09481564    -0.01500
Br950      Br  0.31067311  0.17248734  0.07600182    -0.01600
Br951      Br  0.44334599  0.18895825  0.10307133    -0.01500
Br952      Br  0.43533728  0.24986761  0.10240120    -0.01500
C953        C  0.49526778  0.35585584  0.13508618    -0.02600
C954        C  0.47619285  0.34812212  0.14991134     0.07100
C955        C  0.44401407  0.33407081  0.14781742    -0.02700
C956        C  0.43124378  0.32955084  0.13107344    -0.02700
C957        C  0.45051362  0.33818856  0.11635403     0.07200
C958        C  0.48245621  0.35104321  0.11840860    -0.02900
Br959      Br  0.00726264  0.35787389  0.09679512    -0.01500
Br960      Br  0.03805103  0.37537254  0.13580027    -0.01600
Br961      Br  0.38726444  0.31155336  0.12832277    -0.01500
Br962      Br  0.41744161  0.32160295  0.16779136    -0.01500
C963        C  0.46929284  0.18437925  0.18254094    -0.02600
C964        C  0.44588122  0.18035250  0.17084912     0.07100
C965        C  0.44980922  0.20628907  0.16162025    -0.02700
C966        C  0.47673808  0.23532900  0.16374556    -0.02700
C967        C  0.49942089  0.23974575  0.17610641     0.07200
C968        C  0.49502956  0.21393188  0.18570635    -0.02900
Br969      Br  0.04133552  0.22154080  0.18770385    -0.01500
Br970      Br  0.46672162  0.14897615  0.19363443    -0.01600
Br971      Br  0.48197237  0.26975497  0.15025847    -0.01500
Br972      Br  0.41726400  0.20196696  0.14646776    -0.01500
C973        C  0.21502541  0.45331072  0.19920848    -0.02600
C974        C  0.19197905  0.43510719  0.18657215     0.07100
C975        C  0.19872830  0.44390826  0.16905671    -0.02700
C976        C  0.22731329  0.46981373  0.16443402    -0.02700
C977        C  0.24967369  0.48827923  0.17712284     0.07200
C978        C  0.24253913  0.48031680  0.19456432    -0.02900
Br979      Br  0.27158917  0.50603883  0.21211340    -0.01500
Br980      Br  0.21122213  0.44047890  0.22307207    -0.01600
Br981      Br  0.23628055  0.47973334  0.14027993    -0.01500
Br982      Br  0.16919753  0.42077690  0.15112806    -0.01500
C983        C  0.10536148  0.42219207  0.31543297    -0.02600
C984        C  0.12918789  0.45289965  0.31687421     0.07100
C985        C  0.14071213  0.47076806  0.30177266    -0.02700
C986        C  0.12864393  0.45821374  0.28540431    -0.02700
C987        C  0.10498263  0.42743374  0.28382664     0.07200
C988        C  0.09340771  0.40936217  0.29894908    -0.02900
Br989      Br  0.06167720  0.36684889  0.29726467    -0.01500
Br990      Br  0.08808961  0.39835977  0.33611538    -0.01600
Br991      Br  0.14315518  0.48442089  0.26534321    -0.01500
Br992      Br  0.16684176  0.01824440  0.30256217    -0.01500
C993        C  0.40705637  0.36048932  0.40077099    -0.02600
C994        C  0.42333618  0.34448196  0.40194264     0.07100
C995        C  0.42964764  0.33275509  0.38676341    -0.02700
C996        C  0.41878822  0.33619060  0.37054378    -0.02700
C997        C  0.40191656  0.35176332  0.36941502     0.07200
C998        C  0.39573358  0.36348684  0.38469639    -0.02900
Br999      Br  0.36945660  0.38149254  0.38419188    -0.01500
Br1000     Br  0.40177474  0.37997447  0.42108043    -0.01600
Br1001     Br  0.42739498  0.31978178  0.34996827    -0.01500
Br1002     Br  0.45292645  0.31164685  0.38819323    -0.01500
C1003       C  0.38543565  0.45474577  0.21152186    -0.02600
C1004       C  0.36222595  0.45910443  0.20406911     0.07100
C1005       C  0.33427832  0.44921847  0.21315440    -0.02700
C1006       C  0.32983033  0.43551158  0.22954349    -0.02700
C1007       C  0.35368878  0.43238847  0.23735935     0.07200
C1008       C  0.38190569  0.44299579  0.22837970    -0.02900
Br1009     Br  0.41743731  0.44498785  0.23954958    -0.01500
Br1010     Br  0.42149079  0.46304999  0.19822038    -0.01600
Br1011     Br  0.29058158  0.42120755  0.24093223    -0.01500
Br1012     Br  0.30207254  0.45550185  0.20378963    -0.01500
C1013       C  0.39962216  0.28980009  0.24182503    -0.02600
C1014       C  0.42710534  0.29239623  0.24801959     0.07100
C1015       C  0.42924239  0.28510370  0.26537441    -0.02700
C1016       C  0.40802731  0.28435793  0.27750364    -0.02700
C1017       C  0.38443580  0.28952162  0.27172291     0.07200
C1018       C  0.37752867  0.28727574  0.25382295    -0.02900
Br1019     Br  0.34030503  0.28598982  0.24590660    -0.01500
Br1020     Br  0.39448200  0.29465034  0.21750553    -0.01600
Br1021     Br  0.41376555  0.28055781  0.30182736    -0.01500
Br1022     Br  0.46299816  0.27956845  0.27258203    -0.01500
C1023       C  0.19423025  0.35823891  0.27751959    -0.02600
C1024       C  0.21456376  0.35562663  0.26587957     0.07100
C1025       C  0.20941504  0.35412696  0.24793436    -0.02700
C1026       C  0.18553142  0.35815495  0.24153199    -0.02700
C1027       C  0.16608804  0.36217210  0.25318574     0.07200
C1028       C  0.17047969  0.36248850  0.27112970    -0.02900
Br1029     Br  0.14446755  0.36961309  0.28676769    -0.01500
Br1030     Br  0.19650441  0.35222331  0.30203516    -0.01600
Br1031     Br  0.17972196  0.35824492  0.21681760    -0.01500
Br1032     Br  0.23351297  0.34435775  0.23229077    -0.01500
C1033       C  0.25944879  0.22982190  0.36279962    -0.02600
C1034       C  0.25509753  0.23619673  0.34565941     0.07100
C1035       C  0.24456625  0.21191087  0.33332790    -0.02700
C1036       C  0.24035466  0.18262537  0.33771260    -0.02700
C1037       C  0.24579017  0.17648644  0.35478553     0.07200
C1038       C  0.25449261  0.20040605  0.36740555    -0.02900
Br1039     Br  0.26074757  0.19404819  0.39136414    -0.01500
Br1040     Br  0.27431752  0.26242009  0.37982647    -0.01600
Br1041     Br  0.22593361  0.15068732  0.32032718    -0.01500
Br1042     Br  0.23568000  0.21893660  0.31012643    -0.01500
C1043       C  0.28144434  0.45385428  0.34856197    -0.02600
C1044       C  0.26797970  0.43707743  0.33317694     0.07100
C1045       C  0.25351638  0.44871429  0.32192609    -0.02700
C1046       C  0.24996014  0.47406473  0.32683033    -0.02700
C1047       C  0.26375197  0.49092706  0.34205178     0.07200
C1048       C  0.28032456  0.48093336  0.35257898    -0.02900
Br1049     Br  0.30230097  0.50505965  0.37265480    -0.01500
Br1050     Br  0.30320118  0.44099031  0.36385232    -0.01600
Br1051     Br  0.22379913  0.48401261  0.31334249    -0.01500
Br1052     Br  0.23898448  0.43121297  0.29920263    -0.01500
C1053       C  0.39856485  0.05559724  0.78984265    -0.02600
C1054       C  0.42218544  0.05398006  0.78070670     0.07100
C1055       C  0.43861278  0.04174363  0.78922828    -0.02700
C1056       C  0.43181773  0.03174597  0.80662981    -0.02700
C1057       C  0.40738077  0.03248733  0.81570530     0.07200
C1058       C  0.39143198  0.04540358  0.80713609    -0.02900
Br1059     Br  0.35928297  0.04962983  0.81852520    -0.01500
Br1060     Br  0.37576433  0.07239801  0.77898478    -0.01600
Br1061     Br  0.45811091  0.01931032  0.81815407    -0.01500
Br1062     Br  0.46954946  0.03700460  0.77671149    -0.01500
C1063       C  0.24812292  0.00974545  0.85120257    -0.02600
C1064       C  0.26015437  0.99718144  0.83896623     0.07100
C1065       C  0.26552664  0.00900294  0.82204276    -0.02700
C1066       C  0.26145820  0.03424818  0.81781654    -0.02700
C1067       C  0.24993024  0.04726501  0.83017826     0.07200
C1068       C  0.24232453  0.03383013  0.84676585    -0.02900
Br1069     Br  0.22266513  0.04740477  0.86330797    -0.01500
Br1070     Br  0.23996834  0.99417633  0.87444767    -0.01600
Br1071     Br  0.27398999  0.05215854  0.79513689    -0.01500
Br1072     Br  0.27965385  0.99099585  0.80475480    -0.01500
C1073       C  0.24414932  0.25338540  0.85647490    -0.02600
C1074       C  0.26315070  0.24836796  0.84486119     0.07100
C1075       C  0.28761226  0.27452231  0.83686127    -0.02700
C1076       C  0.29287141  0.30467279  0.84040989    -0.02700
C1077       C  0.27289498  0.30945352  0.85137005     0.07200
C1078       C  0.24880512  0.28334659  0.85960495    -0.02900
Br1079     Br  0.22147851  0.28864492  0.87506729    -0.01500
Br1080     Br  0.21065711  0.21851487  0.86772034    -0.01600
Br1081     Br  0.32831330  0.33983387  0.83078346    -0.01500
Br1082     Br  0.31377847  0.26880484  0.82074682    -0.01500
C1083       C  0.34941343  0.41140437  0.96499241    -0.02600
C1084       C  0.35579715  0.39980069  0.94973954     0.07100
C1085       C  0.37047859  0.38219610  0.95099876    -0.02700
C1086       C  0.37784774  0.37543657  0.96734162    -0.02700
C1087       C  0.37222886  0.38775661  0.98254283     0.07200
C1088       C  0.35846031  0.40616282  0.98128574    -0.02900
Br1089     Br  0.35333955  0.42532234  0.00183339    -0.01500
Br1090     Br  0.32690869  0.43329530  0.96375216    -0.01600
Br1091     Br  0.39384151  0.34756433  0.96863623    -0.01500
Br1092     Br  0.38226749  0.36867817  0.93037855    -0.01500
C1093       C  0.42854204  0.08806721  0.05739263    -0.02600
C1094       C  0.44688478  0.09918907  0.07254569     0.07100
C1095       C  0.47840148  0.12102239  0.07102291    -0.02700
C1096       C  0.49163610  0.13107446  0.05458412    -0.02700
C1097       C  0.47356368  0.11929098  0.03942354     0.07200
C1098       C  0.44190317  0.09809706  0.04088232    -0.02900
Br1099     Br  0.41737936  0.08163265  0.02020103    -0.01500
Br1100     Br  0.38494263  0.05958720  0.05914834    -0.01600
Br1101     Br  0.03847907  0.14665997  0.05291776    -0.01500
Br1102     Br  0.50426023  0.13581586  0.09135498    -0.01500
C1103       C  0.12596917  0.13830748  0.90265423    -0.02600
C1104       C  0.10639571  0.15079331  0.90442129     0.07100
C1105       C  0.09764560  0.16071971  0.88943716    -0.02700
C1106       C  0.10734725  0.15695545  0.87283897    -0.02700
C1107       C  0.12692888  0.14446823  0.87111891     0.07200
C1108       C  0.13667855  0.13576157  0.88618643    -0.02900
Br1109     Br  0.16604485  0.12152634  0.88454427    -0.01500
Br1110     Br  0.13700909  0.12310750  0.92269680    -0.01600
Br1111     Br  0.09280505  0.16770742  0.85244240    -0.01500
Br1112     Br  0.07367446  0.18099330  0.89161700    -0.01500
C1113       C  0.41149764  0.10187606  0.90956700    -0.02600
C1114       C  0.38743908  0.07372390  0.91543915     0.07100
C1115       C  0.38015482  0.06992717  0.93330144    -0.02700
C1116       C  0.40169798  0.09012972  0.94542784    -0.02700
C1117       C  0.42870451  0.11572574  0.93946827     0.07200
C1118       C  0.43174859  0.12337267  0.92170210    -0.02900
Br1119     Br  0.46651940  0.16113163  0.91382291    -0.01500
Br1120     Br  0.41987401  0.10879427  0.88512720    -0.01600
Br1121     Br  0.39728059  0.07940244  0.96964115    -0.01500
Br1122     Br  0.34230948  0.03513751  0.94108467    -0.01500
C1123       C  0.16653042  0.29222709  0.91410540    -0.02600
C1124       C  0.16946053  0.27552746  0.92786885     0.07100
C1125       C  0.19914765  0.28524918  0.93494294    -0.02700
C1126       C  0.22420409  0.31366965  0.93020933    -0.02700
C1127       C  0.22040724  0.33148767  0.91756678     0.07200
C1128       C  0.19180836  0.32031330  0.90912204    -0.02900
Br1129     Br  0.18745511  0.34258755  0.89005425    -0.01500
Br1130     Br  0.12901632  0.27506110  0.90067100    -0.01600
Br1131     Br  0.26364055  0.32886016  0.94160285    -0.01500
Br1132     Br  0.20711575  0.26012928  0.95057885    -0.01500
C1133       C  0.48160987  0.23072626  0.02441266    -0.02600
C1134       C  0.50049692  0.24591604  0.01005960     0.07100
C1135       C  0.49211044  0.26353963  0.99943307    -0.02700
C1136       C  0.46558567  0.26595987  0.00308736    -0.02700
C1137       C  0.44671055  0.25073421  0.01743314     0.07200
C1138       C  0.45496771  0.23292536  0.02799694    -0.02900
Br1139     Br  0.42911353  0.21078931  0.04742141    -0.01500
Br1140     Br  0.49122786  0.20529955  0.03868608    -0.01600
Br1141     Br  0.45574410  0.29111821  0.98871568    -0.01500
Br1142     Br  0.51760131  0.28500995  0.97982140    -0.01500
C1143       C  0.24846603  0.27836239  0.99898410    -0.02600
C1144       C  0.25627780  0.25722336  0.00618329     0.07100
C1145       C  0.23217365  0.22768366  0.01044016    -0.02700
C1146       C  0.20095047  0.21982767  0.00799287    -0.02700
C1147       C  0.19325111  0.24154525  0.00164267     0.07200
C1148       C  0.21735188  0.27093649  0.99722545    -0.02900
Br1149     Br  0.20763070  0.30123594  0.98889540    -0.01500
Br1150     Br  0.28085600  0.31737143  0.99066531    -0.01600
Br1151     Br  0.16833283  0.17910601  0.01348738    -0.01500
Br1152     Br  0.24188505  0.19800981  0.01964506    -0.01500
Zr1153     Zr  0.00595107  0.66781108  0.98432235     2.17500
O1154       O  0.45485781  0.66254782  0.99101442    -0.52100
O1155       O  0.48541791  0.64093041  0.01241360    -0.75300
O1156       O  0.46149667  0.63783220  0.96398199    -0.82100
O1157       O  0.04804269  0.73496742  0.01219442    -0.83800
O1158       O  0.47867026  0.61678493  0.94383594    -0.79500
O1159       O  0.51205201  0.71693423  0.98800874    -0.91100
O1160       O  0.01482770  0.61761564  0.01907875    -0.77100
O1161       O  0.01432809  0.62655847  0.97707388    -0.86600
O1162       O  0.04517348  0.67363609  0.00432357    -0.86200
O1163       O  0.02366577  0.67754967  0.95469559    -0.73000
O1164       O  0.05015287  0.71808015  0.98011271    -0.85100
Zr1165     Zr  0.11444433  0.68948387  0.96337861     2.26400
Zr1166     Zr  0.03342814  0.63648002  0.94802598     2.06300
Zr1167     Zr  0.08869531  0.72353669  0.00033571     2.10000
Zr1168     Zr  0.05356453  0.63212439  0.99679254     1.78800
O1169       O  0.11562407  0.77936426  0.99948676    -0.93900
O1170       O  0.01876933  0.57699215  0.99406952    -0.41700
O1171       O  0.09758539  0.68201061  0.99298791    -0.78400
O1172       O  0.07173290  0.63902630  0.96735983    -0.97100
O1173       O  0.07674465  0.68614122  0.94375556    -0.90400
O1174       O  0.10668396  0.73130367  0.97118767    -0.93200
C1175       C  0.49347956  0.62730276  0.02365210     1.00500
C1176       C  0.02297412  0.73157122  0.00503988     1.13500
C1177       C  0.45823735  0.62230181  0.95010489     1.04300
O1178       O  0.02210038  0.58457081  0.95459930    -0.95400
O1179       O  0.06871950  0.64398933  0.92441950    -0.91100
O1180       O  0.11776116  0.67189873  0.93443532    -0.84300
C1181       C  0.09802319  0.65690867  0.92245698     1.10900
O1182       O  0.03023963  0.74123706  0.94324388    -0.97300
Zr1183     Zr  0.06868983  0.72713401  0.95110349     1.88900
O1184       O  0.14699848  0.73228361  0.94534026    -0.74000
O1185       O  0.01347155  0.61034020  0.92025953    -0.53300
O1186       O  0.05916415  0.72086832  0.92006769    -0.97900
O1187       O  0.08380183  0.78069527  0.95623759    -0.55100
O1188       O  0.12006097  0.75597377  0.93863823    -0.74500
C1189       C  0.14457322  0.75379533  0.93817209     0.97800
O1190       O  0.14611492  0.66529028  0.96497209    -0.63300
O1191       O  0.09443250  0.72551915  0.03171886    -0.58100
O1192       O  0.15797477  0.71580442  0.98220899    -0.94800
O1193       O  0.14390098  0.73582692  0.00473623    -0.93200
O1194       O  0.08168112  0.63681485  0.02341867    -0.93600
O1195       O  0.08319028  0.60561872  0.99615194    -0.92400
C1196       C  0.16362380  0.73050413  0.99653076     1.16700
H1197       H  0.04009459  0.67399172  0.01633283     0.32600
H1198       H  0.07757569  0.62388919  0.96420433     0.43500
H1199       H  0.12548044  0.75086183  0.97068132     0.37000
H1200       H  0.00896804  0.67843121  0.94698054     0.33500
H1201       H  0.02156218  0.56830624  0.00496198     0.25300
H1202       H  0.99390397  0.59130119  0.92273571     0.31200
H1203       H  0.06475814  0.74156198  0.91588985     0.37100
H1204       H  0.06865110  0.61740112  0.02965401     0.31600
H1205       H  0.09449953  0.70640691  0.03461986     0.30500
H1206       H  0.10326287  0.78531371  0.00689052     0.32100
H1207       H  0.09417665  0.79135644  0.94542901     0.31100
H1208       H  0.10484720  0.62203144  0.99463806     0.35100
H1209       H  0.14659641  0.66088002  0.97740502     0.27800
H1210       H  0.45646338  0.66923659  0.00324381     0.32100
H1211       H  0.01459671  0.73258849  0.95254729     0.34900
H1212       H  0.11584435  0.74206968  0.03390620     0.27500
H1213       H  0.13330263  0.64478764  0.95969550     0.40400
H1214       H  0.00099258  0.57106586  0.95012642     0.30500
H1215       H  0.99774562  0.57405818  0.99494216     0.38100
H1216       H  0.10059241  0.78802804  0.96491897     0.29900
H1217       H  0.00739726  0.62335411  0.91367623     0.30000
H1218       H  0.45407836  0.67888149  0.98432226     0.30200
Zr1219     Zr  0.34306485  0.50002844  0.86879574     2.17500
O1220       O  0.34257579  0.54671547  0.86050744    -0.52100
O1221       O  0.38235546  0.52345766  0.84569356    -0.75300
O1222       O  0.36497884  0.54155706  0.89025585    -0.82100
O1223       O  0.27081709  0.95383449  0.84189362    -0.83800
O1224       O  0.37778928  0.52284542  0.91335977    -0.79500
O1225       O  0.30237563  0.50123800  0.85387230    -0.91100
O1226       O  0.39474581  0.48852498  0.83609417    -0.77100
O1227       O  0.38534003  0.99358151  0.87682160    -0.86600
O1228       O  0.34110722  0.96296067  0.84822554    -0.86200
O1229       O  0.33015925  0.98288499  0.89717337    -0.73000
O1230       O  0.29397284  0.95680251  0.87077604    -0.85100
Zr1231     Zr  0.32104169  0.89312822  0.89109871     2.26400
Zr1232     Zr  0.37145316  0.97447935  0.90574533     2.06300
Zr1233     Zr  0.29128196  0.91841284  0.85124366     2.10000
Zr1234     Zr  0.38149417  0.95398105  0.85777735     1.78800
O1235       O  0.23666937  0.88748567  0.84432218    -0.93900
O1236       O  0.43685787  0.98541924  0.86267750    -0.41700
O1237       O  0.33174863  0.90981175  0.86145796    -0.78400
O1238       O  0.37149545  0.93628337  0.88737173    -0.97100
O1239       O  0.32139853  0.93066390  0.90969328    -0.90400
O1240       O  0.28031999  0.90030031  0.88027104    -0.93200
C1241       C  0.39439038  0.51358926  0.83437234     1.00500
C1242       C  0.27779435  0.98210329  0.84543957     1.13500
C1243       C  0.37540917  0.54393011  0.90566983     1.04300
O1244       O  0.42500886  0.98756465  0.90186821    -0.95400
O1245       O  0.36488147  0.94205390  0.93000693    -0.91100
O1246       O  0.34069189  0.89282023  0.92029769    -0.84300
C1247       C  0.35491822  0.91347357  0.93205272     1.10900
O1248       O  0.26412993  0.97381388  0.90771610    -0.97300
Zr1249     Zr  0.28045132  0.93722876  0.89950347     1.88900
O1250       O  0.27329006  0.85905691  0.90573503    -0.74000
O1251       O  0.39521959  0.99511473  0.93401038    -0.53300
O1252       O  0.27800386  0.94113160  0.93084926    -0.97900
O1253       O  0.22829140  0.91745471  0.88839187    -0.55100
O1254       O  0.24810763  0.88556933  0.91039720    -0.74500
C1255       C  0.25007778  0.86112743  0.91099948     0.97800
O1256       O  0.34498478  0.86117196  0.89090655    -0.63300
O1257       O  0.30280342  0.91819256  0.82057247    -0.58100
O1258       O  0.29698255  0.84936542  0.87256570    -0.94800
O1259       O  0.28067726  0.86329754  0.84839977    -0.93200
O1260       O  0.37495476  0.92400736  0.83162175    -0.93600
O1261       O  0.40862156  0.92495882  0.85682664    -0.92400
C1262       C  0.28462531  0.84364655  0.85756108     1.16700
H1263       H  0.34247573  0.96893759  0.83628522     0.32600
H1264       H  0.38651771  0.93114460  0.89134102     0.43500
H1265       H  0.26075601  0.88148485  0.87978171     0.37000
H1266       H  0.32800695  0.99698217  0.90470167     0.33500
H1267       H  0.44657447  0.98294516  0.85206875     0.25300
H1268       H  0.41473333  0.01443056  0.93181023     0.31200
H1269       H  0.25570883  0.93081563  0.93353394     0.37100
H1270       H  0.36317831  0.92965835  0.82362206     0.31600
H1271       H  0.30074287  0.89781860  0.81846597     0.30500
H1272       H  0.22608615  0.88401968  0.85562104     0.32100
H1273       H  0.23000732  0.93183445  0.87922253     0.31100
H1274       H  0.40519941  0.91498116  0.86824885     0.35100
H1275       H  0.35260714  0.86253455  0.87889926     0.27800
H1276       H  0.36434371  0.56326852  0.86026762     0.32100
H1277       H  0.27996183  0.99367308  0.90290031     0.34900
H1278       H  0.28498027  0.91732253  0.81448215     0.27500
H1279       H  0.36403274  0.87264693  0.89781919     0.40400
H1280       H  0.42743976  0.97284600  0.90922807     0.30500
H1281       H  0.44114270  0.00685877  0.86220651     0.38100
H1282       H  0.21666081  0.92045554  0.89787117     0.29900
H1283       H  0.38177101  0.00131055  0.94014467     0.30000
H1284       H  0.33306617  0.55222336  0.87016566     0.30200
Zr1285     Zr  0.33504802  0.81392013  0.31748463     2.17500
O1286       O  0.33681885  0.76872457  0.32740465    -0.52100
O1287       O  0.36885489  0.82559459  0.34268643    -0.75300
O1288       O  0.35722220  0.79352493  0.29688863    -0.82100
O1289       O  0.26246842  0.78906683  0.34310710    -0.83800
O1290       O  0.37366280  0.82585469  0.27406762    -0.79500
O1291       O  0.29113708  0.77137157  0.32973214    -0.91100
O1292       O  0.39344360  0.87673897  0.34797424    -0.77100
O1293       O  0.37671350  0.86165288  0.30811289    -0.86600
O1294       O  0.33275448  0.85035795  0.33664530    -0.86200
O1295       O  0.32220013  0.81814245  0.28787997    -0.73000
O1296       O  0.28487064  0.80871769  0.31433708    -0.85100
Zr1297     Zr  0.31373222  0.89909844  0.29379226     2.26400
Zr1298     Zr  0.36350169  0.86727870  0.27900291     2.06300
Zr1299     Zr  0.28276201  0.84510280  0.33352705     2.10000
Zr1300     Zr  0.37406087  0.89834964  0.32677084     1.78800
O1301       O  0.22800447  0.82488392  0.33880741    -0.93900
O1302       O  0.42874992  0.92258130  0.31987886    -0.41700
O1303       O  0.32422051  0.89313967  0.32341960    -0.78400
O1304       O  0.36422736  0.90595944  0.29720304    -0.97100
O1305       O  0.31369749  0.86174500  0.27509698    -0.90400
O1306       O  0.27234393  0.85147717  0.30421248    -0.93200
C1307       C  0.38713068  0.84938775  0.35163687     1.00500
C1308       C  0.26892078  0.76727892  0.33947349     1.13500
C1309       C  0.36914106  0.80157057  0.28183440     1.04300
O1310       O  0.41715553  0.90678689  0.28289275    -0.95400
O1311       O  0.35812309  0.89551728  0.25514087    -0.91100
O1312       O  0.33510657  0.92119471  0.26556583    -0.84300
C1313       C  0.34893336  0.91503382  0.25350644     1.10900
O1314       O  0.25880875  0.76174942  0.27793927    -0.97300
Zr1315     Zr  0.27300778  0.81438767  0.28522363     1.88900
O1316       O  0.26523806  0.88495269  0.27951380    -0.74000
O1317       O  0.38473555  0.86767367  0.25041786    -0.53300
O1318       O  0.27312863  0.80757913  0.25393977    -0.97900
O1319       O  0.22159695  0.77856359  0.29582657    -0.55100
O1320       O  0.24199149  0.83397136  0.27320214    -0.74500
C1321       C  0.24314622  0.85993631  0.27326716     0.97800
O1322       O  0.33508926  0.95458949  0.29329011    -0.63300
O1323       O  0.29190479  0.85404776  0.36457531    -0.58100
O1324       O  0.29658635  0.92379147  0.31334098    -0.94800
O1325       O  0.27469103  0.89171939  0.33617895    -0.93200
O1326       O  0.37369091  0.92209821  0.35430539    -0.93600
O1327       O  0.39563835  0.95370876  0.32662490    -0.92400
C1328       C  0.28202863  0.91697402  0.32761205     1.16700
H1329       H  0.33466178  0.84660048  0.34867577     0.32600
H1330       H  0.37949800  0.92615342  0.29323255     0.43500
H1331       H  0.25262223  0.85058457  0.30451124     0.37000
H1332       H  0.31966501  0.80141782  0.28059616     0.33500
H1333       H  0.43936296  0.93557544  0.33010908     0.25300
H1334       H  0.40416401  0.86741391  0.25238821     0.31200
H1335       H  0.25111245  0.79623340  0.25056006     0.37100
H1336       H  0.35163665  0.91233791  0.35749053     0.31600
H1337       H  0.27523124  0.85757108  0.36879942     0.30500
H1338       H  0.22611049  0.82477040  0.35157902     0.32100
H1339       H  0.20785988  0.77437046  0.28571967     0.31100
H1340       H  0.38001649  0.95684312  0.32055080     0.35100
H1341       H  0.35669866  0.96329738  0.28936496     0.27800
H1342       H  0.35882405  0.77444756  0.32747345     0.32100
H1343       H  0.23928310  0.75325662  0.27133182     0.34900
H1344       H  0.28683951  0.83385603  0.36936638     0.27500
H1345       H  0.32444816  0.95854876  0.28370145     0.40400
H1346       H  0.42851813  0.89539102  0.28364347     0.30500
H1347       H  0.43369756  0.90584592  0.32032688     0.38100
H1348       H  0.21651280  0.79093101  0.30377295     0.29900
H1349       H  0.37048394  0.84765287  0.24495952     0.30000
H1350       H  0.32727123  0.75282687  0.31824190     0.30200
Zr1351     Zr  0.00028395  0.81787475  0.20309359     2.17500
O1352       O  0.45184260  0.77823528  0.19363182    -0.52100
O1353       O  0.48318479  0.82947173  0.17720122    -0.75300
O1354       O  0.45785671  0.80191655  0.22516783    -0.82100
O1355       O  0.04389902  0.79094843  0.17681159    -0.83800
O1356       O  0.47394559  0.83615038  0.24738199    -0.79500
O1357       O  0.50483984  0.77533589  0.19728528    -0.91100
O1358       O  0.01100539  0.87963065  0.17017776    -0.77100
O1359       O  0.00923912  0.86733532  0.21105099    -0.86600
O1360       O  0.04052254  0.85181041  0.18398424    -0.86200
O1361       O  0.01602562  0.82332833  0.23294958    -0.73000
O1362       O  0.04350989  0.81042084  0.20713317    -0.85100
Zr1363     Zr  0.10776883  0.89955548  0.22676507     2.26400
Zr1364     Zr  0.02666384  0.87412785  0.24036976     2.06300
Zr1365     Zr  0.08341767  0.84421113  0.18794809     2.10000
Zr1366     Zr  0.04999635  0.90159500  0.19253557     1.78800
O1367       O  0.11116154  0.81618503  0.18472203    -0.93900
O1368       O  0.01916425  0.92678757  0.19420064    -0.41700
O1369       O  0.09281593  0.89386794  0.19695230    -0.78400
O1370       O  0.06673541  0.91030168  0.22234002    -0.97100
O1371       O  0.06843690  0.86490733  0.24531235    -0.90400
O1372       O  0.09884220  0.85042574  0.21738324    -0.93200
C1373       C  0.49113070  0.85221908  0.16688742     1.00500
C1374       C  0.01732381  0.76956088  0.18263449     1.13500
C1375       C  0.45390580  0.81145048  0.23988398     1.04300
O1376       O  0.01301382  0.91317288  0.23369168    -0.95400
O1377       O  0.06058565  0.90404501  0.26384365    -0.91100
O1378       O  0.10973727  0.91945829  0.25564748    -0.84300
C1379       C  0.08967624  0.91769277  0.26661394     1.10900
O1380       O  0.01980501  0.76411805  0.24415332    -0.97300
Zr1381     Zr  0.05941085  0.81591315  0.23644238     1.88900
O1382       O  0.13952582  0.88366792  0.24199827    -0.74000
O1383       O  0.00832926  0.87701656  0.26927292    -0.53300
O1384       O  0.05117663  0.81003820  0.26764389    -0.97900
O1385       O  0.06726734  0.77444767  0.22612118    -0.55100
O1386       O  0.11046465  0.83265078  0.24768014    -0.74500
C1387       C  0.13577355  0.85829850  0.24787643     0.97800
O1388       O  0.14436001  0.95439088  0.22705576    -0.63300
O1389       O  0.08844882  0.85236630  0.15678648    -0.58100
O1390       O  0.15100540  0.92067659  0.20811788    -0.94800
O1391       O  0.13922790  0.88802430  0.18525197    -0.93200
O1392       O  0.08188696  0.92178247  0.16680824    -0.93600
O1393       O  0.08017628  0.95743262  0.19306392    -0.92400
C1394       C  0.15823861  0.91284220  0.19394007     1.16700
H1395       H  0.03588218  0.84719480  0.17190312     0.32600
H1396       H  0.07291009  0.93100692  0.22597179     0.43500
H1397       H  0.11697994  0.84830179  0.21720231     0.37000
H1398       H  0.00085928  0.80782867  0.24035047     0.33500
H1399       H  0.02149860  0.93638814  0.18270963     0.25300
H1400       H  0.99002099  0.87937029  0.26754587     0.31200
H1401       H  0.06908968  0.80910490  0.27233358     0.37100
H1402       H  0.07249922  0.93193042  0.16024879     0.31600
H1403       H  0.10900685  0.85517760  0.15397379     0.30500
H1404       H  0.11162347  0.81311693  0.17206488     0.32100
H1405       H  0.07754696  0.77031463  0.23584006     0.31100
H1406       H  0.10019187  0.96220139  0.19823227     0.35100
H1407       H  0.13162219  0.96422496  0.22868730     0.27800
H1408       H  0.43694754  0.78567626  0.19461383     0.32100
H1409       H  0.00409235  0.75785734  0.23488843     0.34900
H1410       H  0.07375270  0.83219214  0.15165349     0.27500
H1411       H  0.15628263  0.95847267  0.23792740     0.40400
H1412       H  0.99031217  0.90168834  0.23233118     0.30500
H1413       H  0.99749485  0.90992470  0.19442590     0.38100
H1414       H  0.08341481  0.78397073  0.21713523     0.29900
H1415       H  0.00029569  0.85639062  0.27436926     0.30000
H1416       H  0.44455552  0.76107005  0.20192835     0.30200
Zr1417     Zr  0.33575574  0.99157648  0.15194059     2.17500
O1418       O  0.28689892  0.94453235  0.15690021    -0.52100
O1419       O  0.34801584  0.96820336  0.17591063    -0.75300
O1420       O  0.32579118  0.94879286  0.13328378    -0.82100
O1421       O  0.30207555  0.53473089  0.17591552    -0.83800
O1422       O  0.35773998  0.96975071  0.11038993    -0.79500
O1423       O  0.29080631  0.98764624  0.16482875    -0.91100
O1424       O  0.39571709  0.00134201  0.18597500    -0.77100
O1425       O  0.38688385  0.50399397  0.14562591    -0.86600
O1426       O  0.36658707  0.53123322  0.17320138    -0.86200
O1427       O  0.34293751  0.51034628  0.12277306    -0.73000
O1428       O  0.32712903  0.53479837  0.14832427    -0.85100
Zr1429     Zr  0.41900550  0.60262079  0.13188590     2.26400
Zr1430     Zr  0.39530838  0.52353899  0.11665478     2.06300
Zr1431     Zr  0.35820013  0.57369158  0.16879356     2.10000
Zr1432     Zr  0.41791519  0.54309015  0.16601716     1.78800
O1433       O  0.33175921  0.60319869  0.17087068    -0.93900
O1434       O  0.44429254  0.51421583  0.16056360    -0.41700
O1435       O  0.40943216  0.58514235  0.16130541    -0.78400
O1436       O  0.42957304  0.56179706  0.13657360    -0.97100
O1437       O  0.38579994  0.56466976  0.11216603    -0.90400
O1438       O  0.36842800  0.59252474  0.13978586    -0.93200
C1439       C  0.36963639  0.97652233  0.18711358     1.00500
C1440       C  0.28339238  0.00458880  0.17349027     1.13500
C1441       C  0.33646564  0.94711753  0.11858541     1.04300
O1442       O  0.43651208  0.51178776  0.12101329    -0.95400
O1443       O  0.42349288  0.55957022  0.09351442    -0.91100
O1444       O  0.44271580  0.60816341  0.10356077    -0.84300
C1445       C  0.43911549  0.58877612  0.09160513     1.10900
O1446       O  0.28385848  0.51575322  0.11060518    -0.97300
Zr1447     Zr  0.33566555  0.55394217  0.11964295     1.88900
O1448       O  0.40543343  0.63299731  0.11368661    -0.74000
O1449       O  0.39991859  0.50635060  0.08771110    -0.53300
O1450       O  0.33258707  0.54607541  0.08844873    -0.97900
O1451       O  0.29613547  0.56628968  0.12819721    -0.55100
O1452       O  0.35468615  0.60458688  0.10760257    -0.74500
C1453       C  0.38063843  0.62954313  0.10682824     0.97800
O1454       O  0.47468528  0.63620692  0.13442727    -0.63300
O1455       O  0.36278975  0.57568423  0.20025878    -0.58100
O1456       O  0.43436045  0.64481488  0.15102804    -0.94800
O1457       O  0.40139809  0.62826092  0.17409127    -0.93200
O1458       O  0.43493782  0.56767347  0.19425754    -0.93600
O1459       O  0.47287738  0.57637852  0.17122119    -0.92400
C1460       C  0.42585346  0.64876731  0.16591953     1.16700
H1461       H  0.36063658  0.52451525  0.18500499     0.32600
H1462       H  0.45061036  0.56818559  0.13372935     0.43500
H1463       H  0.36645295  0.61058689  0.13941620     0.37000
H1464       H  0.32821249  0.49492479  0.11500392     0.33500
H1465       H  0.45430200  0.51479963  0.17172305     0.25300
H1466       H  0.40384564  0.48914304  0.08943807     0.31200
H1467       H  0.33236090  0.52642004  0.08682144     0.37100
H1468       H  0.41749222  0.56985144  0.19860013     0.31600
H1469       H  0.37049982  0.59744773  0.20332985     0.30500
H1470       H  0.32391907  0.60005331  0.18290385     0.32100
H1471       H  0.30559136  0.58867620  0.12651037     0.31100
H1472       H  0.48020723  0.59091100  0.16143195     0.35100
H1473       H  0.47953146  0.63480954  0.14669743     0.27800
H1474       H  0.29212707  0.92847636  0.15974420     0.32100
H1475       H  0.27740975  0.52619447  0.10213990     0.34900
H1476       H  0.34126110  0.56484858  0.20449132     0.27500
H1477       H  0.48379101  0.62548618  0.12808081     0.40400
H1478       H  0.45310501  0.02755449  0.11308737     0.30500
H1479       H  0.42771892  0.49260165  0.15928260     0.38100
H1480       H  0.29450486  0.56369191  0.14093027     0.29900
H1481       H  0.37903070  0.49695054  0.08249668     0.30000
H1482       H  0.27598893  0.93826160  0.14562057     0.30200
Zr1483     Zr  0.34501690  0.83643518  0.03446602     2.17500
O1484       O  0.30362282  0.84660886  0.02693766    -0.52100
O1485       O  0.36036445  0.86914185  0.00892599    -0.75300
O1486       O  0.33469395  0.86540882  0.05638711    -0.82100
O1487       O  0.31131234  0.76307088  0.00806112    -0.83800
O1488       O  0.38294010  0.89383515  0.06484827    -0.79500
O1489       O  0.29982794  0.79656359  0.02139677    -0.91100
O1490       O  0.41032373  0.88599182  0.00222450    -0.77100
O1491       O  0.39560798  0.87232892  0.04357195    -0.86600
O1492       O  0.37758774  0.82820643  0.01505055    -0.86200
O1493       O  0.34738379  0.82180326  0.06394492    -0.73000
O1494       O  0.33236845  0.78384483  0.03737865    -0.85100
Zr1495     Zr  0.42037271  0.80039788  0.05722908     2.26400
Zr1496     Zr  0.39914221  0.85776441  0.07257085     2.06300
Zr1497     Zr  0.36520722  0.77614879  0.01795273     2.10000
Zr1498     Zr  0.42848930  0.86489490  0.02451122     1.78800
O1499       O  0.33694526  0.72131203  0.01170568    -0.93900
O1500       O  0.45141999  0.91947188  0.03111190    -0.41700
O1501       O  0.41629352  0.81271624  0.02771628    -0.78400
O1502       O  0.43433938  0.85273095  0.05391842    -0.97100
O1503       O  0.38622403  0.80584714  0.07571710    -0.90400
O1504       O  0.37005766  0.76343690  0.04704703    -0.93200
C1505       C  0.38393051  0.88327377  0.99901857     1.00500
C1506       C  0.29268284  0.77364251  0.01150049     1.13500
C1507       C  0.35482185  0.88645362  0.06611439     1.04300
O1508       O  0.44749549  0.90441733  0.07890890    -0.95400
O1509       O  0.42690185  0.85121332  0.09606362    -0.91100
O1510       O  0.43983328  0.81603890  0.08685157    -0.84300
C1511       C  0.43886073  0.83416778  0.09837747     1.10900
O1512       O  0.28548594  0.76202111  0.07364659    -0.97300
Zr1513     Zr  0.33621867  0.76957461  0.06623615     1.88900
O1514       O  0.40157771  0.75308111  0.07245647    -0.74000
O1515       O  0.37084061  0.85524734  0.09892421    -0.53300
O1516       O  0.32861863  0.76814911  0.09748845    -0.97900
O1517       O  0.29686504  0.72090350  0.05422321    -0.55100
O1518       O  0.35085136  0.73422418  0.07858901    -0.74500
C1519       C  0.37589295  0.73303269  0.07895402     0.97800
O1520       O  0.47540550  0.81775252  0.05743539    -0.63300
O1521       O  0.37431212  0.78435707  0.98691107    -0.58100
O1522       O  0.43498315  0.77194202  0.03892416    -0.94800
O1523       O  0.40649060  0.76137500  0.01420114    -0.93200
O1524       O  0.45235220  0.85884197  0.99842016    -0.93600
O1525       O  0.48438127  0.88774560  0.02590189    -0.92400
C1526       C  0.42843865  0.76166073  0.02348142     1.16700
H1527       H  0.37376536  0.82987215  0.00293239     0.32600
H1528       H  0.45519729  0.86580404  0.05784049     0.43500
H1529       H  0.36666402  0.74278780  0.04683950     0.37000
H1530       H  0.33280162  0.82358867  0.07139550     0.33500
H1531       H  0.46547553  0.92999043  0.02129884     0.25300
H1532       H  0.38592673  0.86186724  0.10853937     0.31200
H1533       H  0.31623097  0.74611670  0.10037674     0.37100
H1534       H  0.46432091  0.87975418  0.99359059     0.31600
H1535       H  0.39671104  0.79239987  0.98552170     0.30500
H1536       H  0.34887139  0.71294121  0.01739777     0.32100
H1537       H  0.30763732  0.71591295  0.04511165     0.31100
H1538       H  0.48780179  0.87066039  0.02915589     0.35100
H1539       H  0.48206060  0.82235868  0.04520739     0.27800
H1540       H  0.31236829  0.86904009  0.02785200     0.32100
H1541       H  0.27440594  0.74169026  0.07925606     0.34900
H1542       H  0.36451696  0.76347912  0.98181787     0.27500
H1543       H  0.48498215  0.83821918  0.06300755     0.40400
H1544       H  0.45331799  0.91572184  0.06783132     0.30500
H1545       H  0.43462134  0.92428263  0.02970896     0.38100
H1546       H  0.28320060  0.72626792  0.04773108     0.29900
H1547       H  0.35690312  0.83310070  0.10093416     0.30000
H1548       H  0.28815179  0.83778140  0.03633920     0.30200
Zr1549     Zr  0.18621160  0.67555525  0.81786336     2.17500
O1550       O  0.18919943  0.72270438  0.82880538    -0.52100
O1551       O  0.15701034  0.66754461  0.84488582    -0.75300
O1552       O  0.16186145  0.69542811  0.79830345    -0.82100
O1553       O  0.25578270  0.69707847  0.84321730    -0.83800
O1554       O  0.13990087  0.65963753  0.77708135    -0.79500
O1555       O  0.23700961  0.71679040  0.82366763    -0.91100
O1556       O  0.13296171  0.61694000  0.85173653    -0.77100
O1557       O  0.14210855  0.62707103  0.81167248    -0.86600
O1558       O  0.19030747  0.64035501  0.83708831    -0.86200
O1559       O  0.19294467  0.66667572  0.78782013    -0.73000
O1560       O  0.23441539  0.67727139  0.81234849    -0.85100
Zr1561     Zr  0.19967301  0.58470428  0.79410313     2.26400
Zr1562     Zr  0.14871898  0.61735265  0.78213405     2.06300
Zr1563     Zr  0.23842868  0.64273563  0.83186561     2.10000
Zr1564     Zr  0.14687162  0.59148654  0.83001195     1.78800
O1565       O  0.29442783  0.66890355  0.83298574    -0.93900
O1566       O  0.09113477  0.56697093  0.82663722    -0.41700
O1567       O  0.19491243  0.59384836  0.82428024    -0.78400
O1568       O  0.15049591  0.57994855  0.80016370    -0.97100
O1569       O  0.19698225  0.62052542  0.77552116    -0.90400
O1570       O  0.24332739  0.63266012  0.80232034    -0.93200
C1571       C  0.14032448  0.64477872  0.85485941     1.00500
C1572       C  0.25332541  0.71988891  0.83693983     1.13500
C1573       C  0.14683235  0.68540408  0.78407143     1.04300
O1574       O  0.09522559  0.58163467  0.78962413    -0.95400
O1575       O  0.14976623  0.58706711  0.75801399    -0.91100
O1576       O  0.17832288  0.56511763  0.76537195    -0.84300
C1577       C  0.16127302  0.56984507  0.75480948     1.10900
O1578       O  0.25598116  0.71980643  0.77394291    -0.97300
Zr1579     Zr  0.24094589  0.66781360  0.78280053     1.88900
O1580       O  0.24495588  0.59449028  0.77785654    -0.74000
O1581       O  0.11911395  0.61160593  0.75584609    -0.53300
O1582       O  0.23632754  0.66907845  0.75147786    -0.97900
O1583       O  0.29367685  0.70791130  0.78877702    -0.55100
O1584       O  0.27072417  0.64527859  0.77144300    -0.74500
C1585       C  0.26804625  0.61852656  0.77163972     0.97800
O1586       O  0.17268047  0.52875479  0.79443128    -0.63300
O1587       O  0.23523916  0.63333271  0.86293027    -0.58100
O1588       O  0.22480815  0.56409447  0.81100411    -0.94800
O1589       O  0.24876312  0.59758494  0.83330548    -0.93200
O1590       O  0.15160251  0.57187888  0.85792163    -0.93600
O1591       O  0.12374007  0.53601832  0.83189681    -0.92400
C1592       C  0.24148258  0.57228371  0.82462359     1.16700
H1593       H  0.19106708  0.64592333  0.84905255     0.32600
H1594       H  0.13414215  0.55973475  0.79718009     0.43500
H1595       H  0.26233861  0.63240936  0.80206867     0.37000
H1596       H  0.19466427  0.68256700  0.78026985     0.33500
H1597       H  0.08280102  0.55866330  0.83823597     0.25300
H1598       H  0.10122490  0.61366185  0.75945939     0.31200
H1599       H  0.25772059  0.67822793  0.74712956     0.37100
H1600       H  0.17405551  0.58236426  0.86017808     0.31600
H1601       H  0.24999815  0.62604373  0.86511992     0.30500
H1602       H  0.29951802  0.67446626  0.84535130     0.32100
H1603       H  0.30667498  0.70360641  0.78087236     0.31100
H1604       H  0.14098472  0.53210424  0.82971255     0.35100
H1605       H  0.17067781  0.52289567  0.80679028     0.27800
H1606       H  0.16772801  0.71863035  0.82935524     0.32100
H1607       H  0.25406128  0.72985773  0.78457646     0.34900
H1608       H  0.24492590  0.65396741  0.86834009     0.27500
H1609       H  0.15134539  0.52252319  0.79096263     0.40400
H1610       H  0.08808061  0.56525537  0.78070580     0.30500
H1611       H  0.08689934  0.58407364  0.82517227     0.38100
H1612       H  0.29818672  0.70319241  0.80048143     0.29900
H1613       H  0.13203687  0.62999821  0.74876920     0.30000
H1614       H  0.19894953  0.73808213  0.81949111     0.30200
Zr1615     Zr  0.02079173  0.67900932  0.70483795     2.17500
O1616       O  0.06699127  0.72501908  0.69500122    -0.52100
O1617       O  0.04283728  0.67183554  0.67767576    -0.75300
O1618       O  0.06339528  0.69668877  0.72577874    -0.82100
O1619       O  0.47389677  0.69972943  0.67896476    -0.83800
O1620       O  0.04721952  0.66045354  0.74664356    -0.79500
O1621       O  0.01101652  0.71993674  0.69915175    -0.91100
O1622       O  0.01585687  0.62162525  0.66968951    -0.77100
O1623       O  0.51380877  0.62914578  0.71152088    -0.86600
O1624       O  0.48150238  0.64440167  0.68529986    -0.86200
O1625       O  0.49932695  0.66567015  0.73553388    -0.73000
O1626       O  0.47129617  0.67887572  0.71072475    -0.85100
Zr1627     Zr  0.41148229  0.58353545  0.72512379     2.26400
Zr1628     Zr  0.49357222  0.61591566  0.74022200     2.06300
Zr1629     Zr  0.43497695  0.64594355  0.68953747     2.10000
Zr1630     Zr  0.47622790  0.59539180  0.69100394     1.78800
O1631       O  0.40669273  0.67376258  0.68991617    -0.93900
O1632       O  0.50817059  0.57148040  0.69299092    -0.41700
O1633       O  0.42948666  0.59649775  0.69568299    -0.78400
O1634       O  0.45703547  0.58028188  0.72005858    -0.97100
O1635       O  0.44747411  0.61789686  0.74559168    -0.90400
O1636       O  0.41631771  0.63227101  0.71837230    -0.93200
C1637       C  0.03692743  0.64951147  0.66717387     1.00500
C1638       C  0.00141601  0.72366057  0.68466170     1.13500
C1639       C  0.06705835  0.68609514  0.74013770     1.04300
O1640       O  0.50921604  0.57933314  0.73087649    -0.95400
O1641       O  0.46004254  0.58572258  0.76364889    -0.91100
O1642       O  0.41101363  0.56066116  0.75342735    -0.84300
C1643       C  0.43123531  0.56654229  0.76540575     1.10900
O1644       O  0.48640513  0.71892577  0.74809400    -0.97300
Zr1645     Zr  0.45187253  0.66590936  0.73941405     1.88900
O1646       O  0.37434756  0.59051718  0.74165484    -0.74000
O1647       O  0.51645912  0.60688102  0.76592216    -0.53300
O1648       O  0.46038583  0.66659949  0.77055187    -0.97900
O1649       O  0.43476444  0.70315134  0.73516899    -0.55100
O1650       O  0.39899636  0.64040555  0.74966232    -0.74500
C1651       C  0.37497176  0.61364578  0.74905818     0.97800
O1652       O  0.38129606  0.52786416  0.72261664    -0.63300
O1653       O  0.42902870  0.63886455  0.65823134    -0.58100
O1654       O  0.36829443  0.56541054  0.70576551    -0.94800
O1655       O  0.37958005  0.60294070  0.68582581    -0.93200
O1656       O  0.45250116  0.57867432  0.66258256    -0.93600
O1657       O  0.44588953  0.53984798  0.68790597    -0.92400
C1658       C  0.36106879  0.57637857  0.69283530     1.16700
H1659       H  0.48731981  0.65100433  0.67356975     0.32600
H1660       H  0.45280485  0.55962451  0.72237884     0.43500
H1661       H  0.39693882  0.63194376  0.71853040     0.37000
H1662       H  0.01690176  0.68480870  0.74242379     0.33500
H1663       H  0.51007692  0.56594649  0.68089020     0.25300
H1664       H  0.53692822  0.61014955  0.76242438     0.31200
H1665       H  0.45835221  0.68394030  0.77512023     0.37100
H1666       H  0.46574753  0.57228433  0.65638309     0.31600
H1667       H  0.40674640  0.63047016  0.65606226     0.30500
H1668       H  0.38918240  0.66222448  0.68187795     0.32100
H1669       H  0.41431636  0.69442555  0.74075567     0.31100
H1670       H  0.42418477  0.53513948  0.68842223     0.35100
H1671       H  0.39482387  0.52031457  0.72711758     0.27800
H1672       H  0.08403841  0.72045464  0.69584098     0.32100
H1673       H  0.50018720  0.72823658  0.73802203     0.34900
H1674       H  0.43887487  0.65989664  0.65350725     0.27500
H1675       H  0.36483738  0.52160435  0.73140042     0.40400
H1676       H  0.03396174  0.59396862  0.72981855     0.30500
H1677       H  0.02772706  0.58798252  0.69439201     0.38100
H1678       H  0.43038481  0.70218710  0.72260508     0.29900
H1679       H  0.52084449  0.62376817  0.77415565     0.30000
H1680       H  0.07155921  0.74078642  0.70404679     0.30200
Zr1681     Zr  0.02444650  0.82320834  0.48064673     2.17500
O1682       O  0.07014881  0.82440750  0.49281804    -0.52100
O1683       O  0.04698932  0.85491926  0.50686559    -0.75300
O1684       O  0.06691339  0.84318273  0.46026449    -0.82100
O1685       O  0.47712103  0.75565691  0.50856241    -0.83800
O1686       O  0.05100757  0.86044628  0.43772249    -0.79500
O1687       O  0.01337878  0.77300975  0.48803252    -0.91100
O1688       O  0.02330266  0.88269402  0.51202833    -0.77100
O1689       O  0.51584692  0.86349881  0.47334397    -0.86600
O1690       O  0.48339971  0.81790100  0.50032648    -0.86200
O1691       O  0.50628860  0.81229541  0.45100452    -0.73000
O1692       O  0.47688625  0.77253264  0.47654944    -0.85100
Zr1693     Zr  0.41558576  0.80263275  0.45751345     2.26400
Zr1694     Zr  0.49767558  0.85391573  0.44402167     2.06300
Zr1695     Zr  0.43821699  0.76930773  0.49611048     2.10000
Zr1696     Zr  0.47663607  0.85988015  0.49244743     1.78800
O1697       O  0.40870992  0.71363540  0.49791040    -0.93900
O1698       O  0.51104304  0.91497008  0.48960451    -0.48900
O1699       O  0.43129934  0.81128451  0.48745155    -0.78400
O1700       O  0.45904128  0.85261237  0.46272022    -0.97100
O1701       O  0.45397782  0.80463780  0.43883820    -0.90400
O1702       O  0.42256270  0.76124044  0.46662361    -0.93200
C1703       C  0.04239264  0.87372510  0.51606715     1.00500
C1704       C  0.00370684  0.76116405  0.50279693     1.13500
C1705       C  0.07070608  0.85548401  0.44536178     1.04300
O1706       O  0.50837882  0.90599730  0.44977233    -0.95400
O1707       O  0.46476927  0.84612289  0.41892649    -0.91100
O1708       O  0.41528632  0.82128106  0.42848213    -0.84300
C1709       C  0.43571203  0.83524944  0.41672777     1.10900
O1710       O  0.49992659  0.75089996  0.43822032    -0.97300
Zr1711     Zr  0.46046367  0.76308374  0.44719644     1.88900
O1712       O  0.38167944  0.75584152  0.44162447    -0.74000
O1713       O  0.52033364  0.88050770  0.41689989    -0.53300
O1714       O  0.46314532  0.76091425  0.41578925    -0.97900
O1715       O  0.44917583  0.71244913  0.45661286    -0.55100
O1716       O  0.40849462  0.73115868  0.43596391    -0.74500
C1717       C  0.38384327  0.73304711  0.43575892     0.97800
O1718       O  0.38401832  0.82711483  0.45749446    -0.63300
O1719       O  0.43208546  0.77262892  0.52723868    -0.58100
O1720       O  0.37051301  0.77837424  0.47510279    -0.94800
O1721       O  0.38306548  0.75948918  0.49858329    -0.93200
O1722       O  0.44544548  0.84992381  0.51839388    -0.93600
O1723       O  0.44952095  0.88882218  0.49376977    -0.92400
C1724       C  0.36376126  0.76436797  0.48956640     1.16700
H1725       H  0.48809745  0.81756237  0.51244468     0.32600
H1726       H  0.45377869  0.86805821  0.45950486     0.43500
H1727       H  0.40373632  0.74193550  0.46659947     0.37000
H1728       H  0.01932356  0.80597084  0.44393069     0.33500
H1729       H  0.51019335  0.92372521  0.50099205     0.25300
H1730       H  0.53934977  0.89974643  0.42008167     0.31200
H1731       H  0.48368044  0.77830107  0.41279452     0.37100
H1732       H  0.45657422  0.86882493  0.52548568     0.31600
H1733       H  0.40964598  0.76368193  0.52904946     0.30500
H1734       H  0.38994962  0.70921758  0.50448388     0.32100
H1735       H  0.43890974  0.69885922  0.44653727     0.31100
H1736       H  0.42863552  0.87449965  0.48926788     0.35100
H1737       H  0.38584253  0.83525202  0.46940268     0.27800
H1738       H  0.08754803  0.84543812  0.49103136     0.32100
H1739       H  0.51542088  0.75896451  0.44764791     0.34900
H1740       H  0.43689463  0.75746059  0.53230538     0.27500
H1741       H  0.39548725  0.84573606  0.45038459     0.40400
H1742       H  0.04312878  0.91541843  0.44490994     0.30500
H1743       H  0.04227606  0.92296983  0.48667427     0.38100
H1744       H  0.43261359  0.70636802  0.46531313     0.29900
H1745       H  0.52753621  0.86792257  0.41074451     0.30000
H1746       H  0.07464823  0.81128900  0.48513499     0.30200
Zr1747     Zr  0.18385378  0.98859104  0.36993959     2.17500
O1748       O  0.18500076  0.94306694  0.35962932    -0.52100
O1749       O  0.15382973  0.96691729  0.34302840    -0.75300
O1750       O  0.15859614  0.94513582  0.38937452    -0.82100
O1751       O  0.25308298  0.53484576  0.34252525    -0.83800
O1752       O  0.13923563  0.96000523  0.41158841    -0.79500
O1753       O  0.23375174  0.99556878  0.36392883    -0.91100
O1754       O  0.12915498  0.99331117  0.33693993    -0.77100
O1755       O  0.14397207  0.48816719  0.37815056    -0.86600
O1756       O  0.18903609  0.52409514  0.35117407    -0.86200
O1757       O  0.19760841  0.50182857  0.40007002    -0.73000
O1758       O  0.23540173  0.53407582  0.37473007    -0.85100
Zr1759     Zr  0.19954228  0.58902049  0.39462068     2.26400
Zr1760     Zr  0.15300328  0.50526764  0.40760848     2.06300
Zr1761     Zr  0.23622449  0.57147230  0.35544125     2.10000
Zr1762     Zr  0.14450545  0.52653536  0.35985963     1.78800
O1763       O  0.29211959  0.60405495  0.35503577    -0.93900
O1764       O  0.08973697  0.48979765  0.36312043    -0.41700
O1765       O  0.19150718  0.57393932  0.36452403    -0.78400
O1766       O  0.15112179  0.54284731  0.38970747    -0.97100
O1767       O  0.20032151  0.55180646  0.41291931    -0.90400
O1768       O  0.24364499  0.58631699  0.38503965    -0.93200
C1769       C  0.13629444  0.97273068  0.33347551     1.00500
C1770       C  0.25159861  0.00960618  0.35133892     1.13500
C1771       C  0.14468979  0.94058681  0.40388956     1.04300
O1772       O  0.09794894  0.48340801  0.40235875    -0.95400
O1773       O  0.15116268  0.53620084  0.43132547    -0.91100
O1774       O  0.17901141  0.58638046  0.42366426    -0.84300
C1775       C  0.16224274  0.56489562  0.43434846     1.10900
O1776       O  0.26190019  0.51427746  0.41279387    -0.97300
Zr1777     Zr  0.24451920  0.54983819  0.40423248     1.88900
O1778       O  0.24732487  0.62676210  0.40902597    -0.74000
O1779       O  0.13485056  0.48397054  0.43638677    -0.53300
O1780       O  0.24126993  0.54664892  0.43573487    -0.97900
O1781       O  0.29678544  0.56362172  0.39587191    -0.55100
O1782       O  0.27395389  0.60213134  0.41509546    -0.74500
C1783       C  0.27108459  0.62611422  0.41487524     0.97800
O1784       O  0.16785627  0.61326118  0.39642447    -0.63300
O1785       O  0.23460913  0.57954070  0.32448835    -0.58100
O1786       O  0.21809118  0.63351580  0.37682529    -0.94800
O1787       O  0.24175202  0.62526650  0.35393825    -0.93200
O1788       O  0.14756490  0.55264892  0.33284679    -0.93600
O1789       O  0.11267610  0.55063508  0.35976471    -0.92400
C1790       C  0.23334988  0.64239103  0.36276131     1.16700
H1791       H  0.18904442  0.51929855  0.33913293     0.32600
H1792       H  0.13437037  0.54589923  0.39331258     0.43500
H1793       H  0.26257798  0.60560496  0.38484913     0.37000
H1794       H  0.20060307  0.48797884  0.40728856     0.33500
H1795       H  0.08057450  0.48921199  0.35164881     0.25300
H1796       H  0.11617656  0.46369364  0.43463113     0.31200
H1797       H  0.26282048  0.55895384  0.43984176     0.37100
H1798       H  0.16881977  0.56010460  0.32865194     0.31600
H1799       H  0.25202769  0.60050031  0.32251460     0.30500
H1800       H  0.29950716  0.59347357  0.34716751     0.32100
H1801       H  0.31035811  0.58116036  0.40345334     0.31100
H1802       H  0.12596500  0.57125102  0.36483755     0.35100
H1803       H  0.16210974  0.61482221  0.38435676     0.27800
H1804       H  0.16328595  0.92625160  0.35917639     0.32100
H1805       H  0.27604007  0.52415002  0.42271437     0.34900
H1806       H  0.24115640  0.56594308  0.31890864     0.27500
H1807       H  0.18183231  0.63465215  0.40022414     0.40400
H1808       H  0.08508590  0.97477640  0.40101472     0.30500
H1809       H  0.08836122  0.46954286  0.36406747     0.38100
H1810       H  0.29942367  0.57262183  0.38419247     0.29900
H1811       H  0.15057695  0.47950356  0.44110383     0.30000
H1812       H  0.19451544  0.93724381  0.36902483     0.30200
Zr1813     Zr  0.18107319  0.00021578  0.65182331     2.17500
O1814       O  0.21263695  0.55727158  0.65618345    -0.52100
O1815       O  0.15978535  0.51949678  0.67879741    -0.75300
O1816       O  0.18689709  0.54107930  0.63182999    -0.82100
O1817       O  0.21917102  0.96230591  0.67642453    -0.83800
O1818       O  0.13866815  0.51813493  0.62391542    -0.79500
O1819       O  0.22183546  0.50878190  0.66776062    -0.91100
O1820       O  0.11358617  0.97994482  0.68311021    -0.77100
O1821       O  0.12936029  0.98209553  0.64280051    -0.86600
O1822       O  0.15010875  0.95751766  0.67039855    -0.86200
O1823       O  0.18046957  0.98593539  0.62177507    -0.73000
O1824       O  0.19765302  0.96316156  0.64784209    -0.85100
Zr1825     Zr  0.11330282  0.88957630  0.62566242     2.26400
Zr1826     Zr  0.12793191  0.96669752  0.61322521     2.06300
Zr1827     Zr  0.16594188  0.92032874  0.66609195     2.10000
Zr1828     Zr  0.09846358  0.93996944  0.66091099     1.78800
O1829       O  0.19282406  0.89128248  0.66817930    -0.93900
O1830       O  0.06571689  0.96173059  0.65428349    -0.41700
O1831       O  0.11486603  0.90354141  0.65568778    -0.78400
O1832       O  0.09450246  0.92427995  0.63080342    -0.97100
O1833       O  0.14583754  0.93154671  0.60833335    -0.90400
O1834       O  0.16431963  0.90633486  0.63641308    -0.93200
C1835       C  0.13550884  0.50934264  0.68814206     1.00500
C1836       C  0.23648514  0.99178271  0.67364181     1.13500
C1837       C  0.16609571  0.53945822  0.62167872     1.04300
O1838       O  0.07950182  0.96370090  0.60526762    -0.95400
O1839       O  0.10434659  0.93511571  0.58826126    -0.91100
O1840       O  0.09507238  0.88766356  0.59573131    -0.84300
C1841       C  0.09470819  0.90690891  0.58489489     1.10900
O1842       O  0.24649964  0.99369741  0.61295927    -0.97300
Zr1843     Zr  0.19643741  0.94857739  0.61829600     1.88900
O1844       O  0.13833290  0.86499910  0.61189812    -0.74000
O1845       O  0.15276369  0.99821209  0.58796925    -0.53300
O1846       O  0.20338368  0.96040222  0.58750253    -0.97900
O1847       O  0.23913475  0.94105353  0.62640146    -0.55100
O1848       O  0.18697426  0.90146350  0.60447216    -0.74500
C1849       C  0.16464137  0.87381928  0.60497266     0.97800
O1850       O  0.06210998  0.84836399  0.61767567    -0.63300
O1851       O  0.16080996  0.91859625  0.69749438    -0.58100
O1852       O  0.09409753  0.84757962  0.64542239    -0.94800
O1853       O  0.12239024  0.86489293  0.67024591    -0.93200
O1854       O  0.07877414  0.91372069  0.68835690    -0.93600
O1855       O  0.04575293  0.89707143  0.66099309    -0.92400
C1856       C  0.09971699  0.84358139  0.66102602     1.16700
H1857       H  0.15314543  0.96242778  0.68256482     0.32600
H1858       H  0.07344615  0.91535394  0.62676810     0.43500
H1859       H  0.17027228  0.89092638  0.63645107     0.37000
H1860       H  0.19412663  0.00300630  0.61456596     0.33500
H1861       H  0.05255760  0.95746414  0.66465990     0.25300
H1862       H  0.13604790  0.99266391  0.57942904     0.31200
H1863       H  0.21398820  0.94966569  0.58293293     0.37100
H1864       H  0.06582956  0.92191092  0.69300322     0.31600
H1865       H  0.13843782  0.90981409  0.69951023     0.30500
H1866       H  0.21388003  0.90546631  0.66392314     0.32100
H1867       H  0.22936681  0.92038253  0.63160522     0.31100
H1868       H  0.04727745  0.87976719  0.65587914     0.35100
H1869       H  0.04894557  0.84522134  0.62792002     0.27800
H1870       H  0.23362250  0.55996153  0.65596407     0.32100
H1871       H  0.24926918  0.00794774  0.62259583     0.34900
H1872       H  0.16515002  0.90225899  0.70108570     0.27500
H1873       H  0.06384354  0.82962670  0.61680158     0.40400
H1874       H  0.07114487  0.96642812  0.61635315     0.30500
H1875       H  0.07965680  0.98421736  0.65456356     0.38100
H1876       H  0.24869483  0.95522748  0.63630365     0.29900
H1877       H  0.16537729  0.98985290  0.58304591     0.30000
H1878       H  0.21019499  0.56357443  0.66796758     0.30200
Zr1879     Zr  0.18512126  0.66010574  0.53304054     2.17500
O1880       O  0.23190037  0.65738353  0.52816430    -0.52100
O1881       O  0.16887576  0.62602281  0.50792662    -0.75300
O1882       O  0.18665035  0.62048201  0.55042217    -0.82100
O1883       O  0.21749379  0.73472030  0.50861616    -0.83800
O1884       O  0.17377322  0.62765538  0.57746358    -0.79500
O1885       O  0.23013373  0.70011494  0.51914408    -0.91100
O1886       O  0.11733989  0.60605915  0.50454402    -0.77100
O1887       O  0.13606857  0.62495102  0.54475939    -0.86600
O1888       O  0.15004496  0.66620288  0.51457770    -0.86200
O1889       O  0.18652598  0.67725744  0.56238878    -0.73000
O1890       O  0.19656045  0.71214981  0.53590586    -0.85100
Zr1891     Zr  0.11152738  0.69814109  0.55847687     2.26400
Zr1892     Zr  0.13587233  0.64292511  0.57363321     2.06300
Zr1893     Zr  0.16202431  0.71845946  0.51741010     2.10000
Zr1894     Zr  0.10093455  0.63024756  0.52645519     1.78800
O1895       O  0.18546648  0.77294583  0.51130274    -0.93900
O1896       O  0.07572413  0.57647460  0.53483405    -0.41700
O1897       O  0.11252981  0.68246251  0.52907224    -0.78400
O1898       O  0.09793034  0.64528441  0.55595573    -0.97100
O1899       O  0.14775797  0.69474973  0.57663247    -0.90400
O1900       O  0.16055252  0.73344400  0.54655936    -0.93200
C1901       C  0.14339667  0.60906525  0.49993863     1.00500
C1902       C  0.23691968  0.72470593  0.51096614     1.13500
C1903       C  0.18327005  0.61491139  0.56668448     1.04300
O1904       O  0.09186484  0.59114391  0.57356308    -0.95400
O1905       O  0.11160232  0.65416641  0.59786685    -0.91100
O1906       O  0.09192767  0.68316272  0.58794061    -0.84300
C1907       C  0.09609150  0.66797567  0.59993724     1.10900
O1908       O  0.24919175  0.74182394  0.57153891    -0.97300
Zr1909     Zr  0.19653150  0.72875867  0.56468719     1.88900
O1910       O  0.13359329  0.74787912  0.57258995    -0.74000
O1911       O  0.14334901  0.62384705  0.60117052    -0.53300
O1912       O  0.20541528  0.72551623  0.59539659    -0.97900
O1913       O  0.23380573  0.77818033  0.55267151    -0.55100
O1914       O  0.18431678  0.76459856  0.57774225    -0.74500
C1915       C  0.16039341  0.76739355  0.57835316     0.97800
O1916       O  0.05758301  0.68491816  0.55941113    -0.63300
O1917       O  0.15323370  0.70919531  0.48633531    -0.58100
O1918       O  0.09248762  0.72218691  0.53956857    -0.94800
O1919       O  0.11913977  0.73147627  0.51423946    -0.93200
O1920       O  0.07443991  0.63039136  0.50010675    -0.93600
O1921       O  0.04549356  0.61029439  0.52723266    -0.92400
C1922       C  0.09756205  0.73135317  0.52391107     1.16700
H1923       H  0.15210510  0.66310856  0.50243716     0.32600
H1924       H  0.07756295  0.63245191  0.56056153     0.43500
H1925       H  0.16411848  0.75417313  0.54607945     0.37000
H1926       H  0.20321082  0.67720361  0.56862628     0.33500
H1927       H  0.06084926  0.57423961  0.54397055     0.25300
H1928       H  0.12257934  0.61140639  0.60627030     0.31200
H1929       H  0.21513209  0.74689644  0.59974174     0.37100
H1930       H  0.08480931  0.65218253  0.49667826     0.31600
H1931       H  0.13059472  0.69647318  0.48511995     0.30500
H1932       H  0.19617924  0.77568970  0.50010263     0.32100
H1933       H  0.23757737  0.79340407  0.56190426     0.31100
H1934       H  0.04322225  0.62765093  0.53154056     0.35100
H1935       H  0.04595837  0.66253751  0.56139569     0.27800
H1936       H  0.22485926  0.63588055  0.52470686     0.32100
H1937       H  0.25050913  0.72332988  0.56860367     0.34900
H1938       H  0.15816282  0.72929280  0.48146770     0.27500
H1939       H  0.05516980  0.69429658  0.57019129     0.40400
H1940       H  0.07577503  0.59267540  0.58024946     0.30500
H1941       H  0.06269143  0.56514252  0.52475810     0.38100
H1942       H  0.22237611  0.78227913  0.54359686     0.29900
H1943       H  0.15401971  0.64207641  0.60881785     0.30000
H1944       H  0.24144107  0.65986291  0.53972156     0.30200
C1945       C  0.20453416  0.57912535  0.60047649    -0.02600
C1946       C  0.17359894  0.55862325  0.60576522     0.07100
C1947       C  0.14929325  0.55317000  0.59412494    -0.02700
C1948       C  0.15617483  0.56440534  0.57726997    -0.02700
C1949       C  0.18521470  0.58926892  0.57383286     0.07200
C1950       C  0.20985765  0.59558687  0.58490188    -0.02900
Br1951     Br  0.25038876  0.62766466  0.57850943    -0.01500
Br1952     Br  0.23998333  0.58722343  0.61430734    -0.01600
Br1953     Br  0.12442261  0.55104363  0.55975375    -0.01500
Br1954     Br  0.10659316  0.53496555  0.60104345    -0.01500
C1955       C  0.16775205  0.82731372  0.60981426    -0.02600
C1956       C  0.16962483  0.84973624  0.59826836     0.07100
C1957       C  0.17270566  0.84695099  0.58039730    -0.02700
C1958       C  0.17119755  0.82023930  0.57393307    -0.02700
C1959       C  0.16476249  0.79601012  0.58531092     0.07200
C1960       C  0.16453056  0.79994493  0.60328621    -0.02900
Br1961     Br  0.16003694  0.76807617  0.61882790    -0.01500
Br1962     Br  0.17084415  0.83462559  0.63448416    -0.01600
Br1963     Br  0.17946734  0.81752739  0.54976251    -0.01500
Br1964     Br  0.17790857  0.87896901  0.56482881    -0.01500
C1965       C  0.15813322  0.57543027  0.48300577    -0.02600
C1966       C  0.14498769  0.59456926  0.48347932     0.07100
C1967       C  0.13605667  0.60240062  0.46782504    -0.02700
C1968       C  0.14091738  0.59187469  0.45186243    -0.02700
C1969       C  0.15525004  0.57387828  0.45131582     0.07200
C1970       C  0.16308551  0.56492528  0.46697416    -0.02900
Br1971     Br  0.18158844  0.53917421  0.46657084    -0.01500
Br1972     Br  0.16902691  0.56336619  0.50437185    -0.01600
Br1973     Br  0.12652213  0.60101549  0.43072329    -0.01500
Br1974     Br  0.11891126  0.62929116  0.46787888    -0.01500
C1975       C  0.08878362  0.89695578  0.53590052    -0.02600
C1976       C  0.05658780  0.88231176  0.53355424     0.07100
C1977       C  0.03719534  0.87473954  0.54826379    -0.02700
C1978       C  0.04983527  0.88155258  0.56503554    -0.02700
C1979       C  0.08187059  0.89636999  0.56737081     0.07200
C1980       C  0.10141637  0.90471393  0.55276643    -0.02900
Br1981     Br  0.14545582  0.92804929  0.55586116    -0.01500
Br1982     Br  0.11551146  0.90783628  0.51601347    -0.01600
Br1983     Br  0.02328676  0.87215187  0.58495615    -0.01500
Br1984     Br  0.48906908  0.83314133  0.54842788    -0.01500
C1985       C  0.12599301  0.89062027  0.44215870    -0.02600
C1986       C  0.09918875  0.86525063  0.43573596     0.07100
C1987       C  0.09581412  0.85955205  0.41775025    -0.02700
C1988       C  0.11319947  0.88367590  0.40633547    -0.02700
C1989       C  0.13556484  0.91209409  0.41323710     0.07200
C1990       C  0.14451315  0.91423445  0.43074946    -0.02900
Br1991     Br  0.18009647  0.95084218  0.43934012    -0.01500
Br1992     Br  0.13392454  0.89571176  0.46669837    -0.01600
Br1993     Br  0.10296718  0.87909971  0.38204079    -0.01500
Br1994     Br  0.06251226  0.82106422  0.40932583    -0.01500
C1995       C  0.33890978  0.68174557  0.44182359    -0.02600
C1996       C  0.35522727  0.70589504  0.43006125     0.07100
C1997       C  0.34331985  0.70442941  0.41341223    -0.02700
C1998       C  0.31565431  0.67828447  0.40831930    -0.02700
C1999       C  0.29827080  0.65501562  0.42048838     0.07200
C2000       C  0.30973633  0.65731323  0.43736923    -0.02900
Br2001     Br  0.28485993  0.62751502  0.45459736    -0.01500
Br2002     Br  0.35614441  0.68184221  0.46416134    -0.01600
Br2003     Br  0.30388032  0.67324515  0.38426797    -0.01500
Br2004     Br  0.36562685  0.73774980  0.39750054    -0.01500
C2005       C  0.04397624  0.76554671  0.52398324    -0.02600
C2006       C  0.02280952  0.74883945  0.51064582     0.07100
C2007       C  0.02824350  0.72811625  0.50069972    -0.02700
C2008       C  0.05397191  0.72413467  0.50400941    -0.02700
C2009       C  0.07512992  0.74084823  0.51734969     0.07200
C2010       C  0.06963187  0.76149391  0.52735208    -0.02900
Br2011     Br  0.09807198  0.78539192  0.54552971    -0.01500
Br2012     Br  0.03924171  0.79601410  0.53680643    -0.01600
Br2013     Br  0.05967559  0.69500167  0.49047605    -0.01500
Br2014     Br  0.00050400  0.70552677  0.48195781    -0.01500
C2015       C  0.32523611  0.76516898  0.51109752    -0.02600
C2016       C  0.33113899  0.75407165  0.49553231     0.07100
C2017       C  0.30590116  0.73764182  0.48396798    -0.02700
C2018       C  0.27556728  0.73071230  0.48838099    -0.02700
C2019       C  0.26947558  0.74084904  0.50416242     0.07200
C2020       C  0.29477783  0.75837824  0.51541667    -0.02900
Br2021     Br  0.28771810  0.77259263  0.53712103    -0.01500
Br2022     Br  0.35921146  0.79120019  0.52610410    -0.01600
Br2023     Br  0.24143183  0.70527925  0.47321773    -0.01500
Br2024     Br  0.31211614  0.72359355  0.46190634    -0.01500
C2025       C  0.08513415  0.66827741  0.64903386    -0.02600
C2026       C  0.05304896  0.65637262  0.65017949     0.07100
C2027       C  0.03554427  0.64989248  0.63478083    -0.02700
C2028       C  0.04976010  0.65454759  0.61845847    -0.02700
C2029       C  0.08173419  0.66564778  0.61722369     0.07200
C2030       C  0.09941167  0.67274004  0.63263667    -0.02900
Br2031     Br  0.14331520  0.68880908  0.63140720    -0.01500
Br2032     Br  0.10919712  0.67689091  0.66994317    -0.01600
Br2033     Br  0.02452559  0.64325203  0.59786212    -0.01500
Br2034     Br  0.49220800  0.63720124  0.63694845    -0.01500
C2035       C  0.03962102  0.75732202  0.66192819    -0.02600
C2036       C  0.02205058  0.75474841  0.67678206     0.07100
C2037       C  0.03195657  0.78141088  0.68724006    -0.02700
C2038       C  0.05890093  0.80961944  0.68315296    -0.02700
C2039       C  0.07625099  0.81238504  0.66811047     0.07200
C2040       C  0.06608365  0.78566143  0.65756362    -0.02900
Br2041     Br  0.08965972  0.78685623  0.63748851    -0.01500
Br2042     Br  0.02886741  0.72116508  0.64822467    -0.01600
Br2043     Br  0.07201849  0.84437777  0.69841600    -0.01500
Br2044     Br  0.00832540  0.77907449  0.70755457    -0.01500
C2045       C  0.31770619  0.52522432  0.68182118    -0.02600
C2046       C  0.32828485  0.55621299  0.68665511     0.07100
C2047       C  0.30600707  0.56501036  0.68974171    -0.02700
C2048       C  0.27406490  0.54325239  0.68859332    -0.02700
C2049       C  0.26327373  0.51231371  0.68328176     0.07200
C2050       C  0.28566888  0.50360493  0.68004680    -0.02900
Br2051     Br  0.28467634  0.96777815  0.66647304    -0.01500
Br2052     Br  0.34759858  0.51268159  0.67687509    -0.01600
Br2053     Br  0.24488983  0.55586033  0.69543489    -0.01500
Br2054     Br  0.31932709  0.60682994  0.69651053    -0.01500
C2055       C  0.16248441  0.57210718  0.72242593    -0.02600
C2056       C  0.15415759  0.55461610  0.73773256     0.07100
C2057       C  0.13748804  0.52248958  0.73670931    -0.02700
C2058       C  0.13090138  0.50771849  0.72049928    -0.02700
C2059       C  0.13892852  0.52500758  0.70503871     0.07200
C2060       C  0.15434159  0.55737015  0.70613021    -0.02900
Br2061     Br  0.16400751  0.58167664  0.68538384    -0.01500
Br2062     Br  0.18636516  0.61627256  0.72375703    -0.01600
Br2063     Br  0.11376632  0.46386546  0.71997791    -0.01500
Br2064     Br  0.12263305  0.49855415  0.75757581    -0.01500
C2065       C  0.11353012  0.70846276  0.78028936    -0.02600
C2066       C  0.13750559  0.70423711  0.77408599     0.07100
C2067       C  0.14455641  0.70783221  0.75623688    -0.02700
C2068       C  0.12317335  0.70747424  0.74435621    -0.02700
C2069       C  0.09517794  0.70381373  0.75054935     0.07200
C2070       C  0.09203281  0.70805560  0.76841856    -0.02900
Br2071     Br  0.05667586  0.71011286  0.77657361    -0.01500
Br2072     Br  0.10843649  0.71117867  0.80486362    -0.01600
Br2073     Br  0.13012953  0.70743227  0.71979774    -0.01500
Br2074     Br  0.18144703  0.70883253  0.74807054    -0.01500
C2075       C  0.31682558  0.59048349  0.74926800    -0.02600
C2076       C  0.34619427  0.61030663  0.75672765     0.07100
C2077       C  0.34836914  0.62979956  0.77059845    -0.02700
C2078       C  0.32271804  0.63236617  0.77533581    -0.02700
C2079       C  0.29472217  0.61579356  0.76620866     0.07200
C2080       C  0.29151330  0.59419253  0.75356434    -0.02900
Br2081     Br  0.25255449  0.57057661  0.74174550    -0.01500
Br2082     Br  0.30976383  0.55711067  0.73394321    -0.01600
Br2083     Br  0.32595768  0.65765780  0.79503931    -0.01500
Br2084     Br  0.38584212  0.65182672  0.78414564    -0.01500
C2085       C  0.30838229  0.90892780  0.09614167    -0.02600
C2086       C  0.32733770  0.91747842  0.11087070     0.07100
C2087       C  0.35135100  0.91112326  0.11159791    -0.02700
C2088       C  0.36385520  0.90855013  0.09602646    -0.02700
C2089       C  0.34530777  0.89896227  0.08085007     0.07200
C2090       C  0.31648054  0.89811919  0.08124906    -0.02900
Br2091     Br  0.29061875  0.88783530  0.06101563    -0.01500
Br2092     Br  0.27321847  0.91488491  0.09639509    -0.01600
Br2093     Br  0.40804486  0.92608202  0.09583416    -0.01500
Br2094     Br  0.37341544  0.91735012  0.13317116    -0.01500
C2095       C  0.35650008  0.67694321  0.07972905    -0.02600
C2096       C  0.37565401  0.70640207  0.08666338     0.07100
C2097       C  0.39837883  0.71124749  0.09893643    -0.02700
C2098       C  0.40200537  0.68672518  0.10443463    -0.02700
C2099       C  0.38128589  0.65645176  0.09849755     0.07200
C2100       C  0.35930944  0.65202402  0.08553414    -0.02900
Br2101     Br  0.33485973  0.61267775  0.07417531    -0.01500
Br2102     Br  0.32765054  0.67095133  0.06143480    -0.01600
Br2103     Br  0.43674863  0.69645029  0.11941462    -0.01500
Br2104     Br  0.42432197  0.75180052  0.10863112    -0.01500
C2105       C  0.49636458  0.85328407  0.13460155    -0.02600
C2106       C  0.47716235  0.84599982  0.14937405     0.07100
C2107       C  0.44501278  0.83188988  0.14718573    -0.02700
C2108       C  0.43235678  0.82657800  0.13038059    -0.02700
C2109       C  0.45177130  0.83548719  0.11571582     0.07200
C2110       C  0.48366124  0.84796199  0.11785079    -0.02900
Br2111     Br  0.00859000  0.85223725  0.09809683    -0.01500
Br2112     Br  0.03918046  0.86993066  0.13717706    -0.01600
Br2113     Br  0.38825630  0.80601961  0.12740025    -0.01500
Br2114     Br  0.41841900  0.82092450  0.16715375    -0.01500
C2115       C  0.47602201  0.68513054  0.18043303    -0.02600
C2116       C  0.44760848  0.67965965  0.17331130     0.07100
C2117       C  0.44561435  0.70499198  0.16733466    -0.02700
C2118       C  0.47174935  0.73478194  0.16761611    -0.02700
C2119       C  0.49933106  0.74070729  0.17601434     0.07200
C2120       C  0.50115430  0.71545466  0.18243899    -0.02900
Br2121     Br  0.03871161  0.72064394  0.19123725    -0.01500
Br2122     Br  0.48052680  0.65082812  0.18731665    -0.01600
Br2123     Br  0.47032538  0.76763376  0.15577244    -0.01500
Br2124     Br  0.40645328  0.69862150  0.15913462    -0.01500
C2125       C  0.21426556  0.95220574  0.20083061    -0.02600
C2126       C  0.19082742  0.93574992  0.18808489     0.07100
C2127       C  0.19794996  0.94554541  0.17072378    -0.02700
C2128       C  0.22710652  0.97104272  0.16639110    -0.02700
C2129       C  0.25017521  0.98739166  0.17911553     0.07200
C2130       C  0.24294688  0.97818822  0.19643256    -0.02900
Br2131     Br  0.27322402  0.00076382  0.21413080    -0.01500
Br2132     Br  0.20921482  0.93746586  0.22436578    -0.01600
Br2133     Br  0.23583890  0.98375646  0.14262038    -0.01500
Br2134     Br  0.16845949  0.92380915  0.15257341    -0.01500
C2135       C  0.10421192  0.92583797  0.31501964    -0.02600
C2136       C  0.12575030  0.95738294  0.31643801     0.07100
C2137       C  0.13533118  0.97562624  0.30136075    -0.02700
C2138       C  0.12264782  0.96280156  0.28517128    -0.02700
C2139       C  0.10093515  0.93146205  0.28379284     0.07200
C2140       C  0.09156081  0.91294155  0.29871882    -0.02900
Br2141     Br  0.06152153  0.86986837  0.29680997    -0.01500
Br2142     Br  0.09183304  0.90036839  0.33528278    -0.01600
Br2143     Br  0.13362033  0.98866829  0.26500092    -0.01500
Br2144     Br  0.17265399  0.51320783  0.30335080    -0.01500
C2145       C  0.40990251  0.85679257  0.39890874    -0.02600
C2146       C  0.42479768  0.83942169  0.39973483     0.07100
C2147       C  0.42739979  0.82489882  0.38462844    -0.02700
C2148       C  0.41500978  0.82780879  0.36878484    -0.02700
C2149       C  0.39973607  0.84501895  0.36807416     0.07200
C2150       C  0.39591796  0.85809103  0.38347066    -0.02900
Br2151     Br  0.36796020  0.87406326  0.38431993    -0.01500
Br2152     Br  0.41056661  0.88083977  0.41865045    -0.01600
Br2153     Br  0.41858357  0.80776130  0.34828258    -0.01500
Br2154     Br  0.44780067  0.80099992  0.38563127    -0.01500
C2155       C  0.38632985  0.95352747  0.21070651    -0.02600
C2156       C  0.36313776  0.95779985  0.20310718     0.07100
C2157       C  0.33474599  0.94701830  0.21194158    -0.02700
C2158       C  0.33052823  0.93414335  0.22858574    -0.02700
C2159       C  0.35414294  0.93072971  0.23644867     0.07200
C2160       C  0.38222196  0.94086309  0.22740631    -0.02900
Br2161     Br  0.41662380  0.94025787  0.23829107    -0.01500
Br2162     Br  0.42296403  0.96274371  0.19770149    -0.01600
Br2163     Br  0.29198852  0.92149181  0.24040559    -0.01500
Br2164     Br  0.30094864  0.94966286  0.20163530    -0.01500
C2165       C  0.39678088  0.78629055  0.24281458    -0.02600
C2166       C  0.42547204  0.79269281  0.24964981     0.07100
C2167       C  0.42769566  0.78641070  0.26729974    -0.02700
C2168       C  0.40337637  0.78032117  0.27858447    -0.02700
C2169       C  0.37828938  0.78224834  0.27221600     0.07200
C2170       C  0.37250093  0.77952636  0.25428510    -0.02900
Br2171     Br  0.33298249  0.77208413  0.24604583    -0.01500
Br2172     Br  0.39211199  0.79227024  0.21862548    -0.01600
Br2173     Br  0.40594159  0.77368001  0.30292478    -0.01500
Br2174     Br  0.46505385  0.78969400  0.27650417    -0.01500
C2175       C  0.19720297  0.86536045  0.27814251    -0.02600
C2176       C  0.21616177  0.86027958  0.26662877     0.07100
C2177       C  0.20770206  0.85274377  0.24916601    -0.02700
C2178       C  0.18113719  0.85206453  0.24296033    -0.02700
C2179       C  0.16296063  0.85840972  0.25435993     0.07200
C2180       C  0.17095425  0.86523251  0.27185337    -0.02900
Br2181     Br  0.14584113  0.87446058  0.28702870    -0.01500
Br2182     Br  0.20468830  0.86859215  0.30277906    -0.01600
Br2183     Br  0.17021187  0.84296710  0.21881843    -0.01500
Br2184     Br  0.23186859  0.84236710  0.23390940    -0.01500
C2185       C  0.25476449  0.72871363  0.36380133    -0.02600
C2186       C  0.25172620  0.73473588  0.34634262     0.07100
C2187       C  0.24160397  0.70983709  0.33443264    -0.02700
C2188       C  0.23686453  0.68056989  0.33950699    -0.02700
C2189       C  0.24059600  0.67452768  0.35695249     0.07200
C2190       C  0.24759612  0.69879838  0.36925454    -0.02900
Br2191     Br  0.24740149  0.69252036  0.39396574    -0.01500
Br2192     Br  0.27198138  0.76263360  0.38000791    -0.01600
Br2193     Br  0.22333975  0.64819614  0.32245550    -0.01500
Br2194     Br  0.23476125  0.71623823  0.31065504    -0.01500
C2195       C  0.28275663  0.95419198  0.35068190    -0.02600
C2196       C  0.27473978  0.94149643  0.33382242     0.07100
C2197       C  0.26549891  0.95695535  0.32168658    -0.02700
C2198       C  0.26084182  0.98150277  0.32691870    -0.02700
C2199       C  0.26709198  0.99279912  0.34400945     0.07200
C2200       C  0.27972603  0.97994012  0.35551613    -0.02900
Br2201     Br  0.29458280  0.99907291  0.37783273    -0.01500
Br2202     Br  0.30019644  0.93792190  0.36687564    -0.01600
Br2203     Br  0.24457543  0.99907721  0.31073684    -0.01500
Br2204     Br  0.25930803  0.94573193  0.29741025    -0.01500
C2205       C  0.39757298  0.55369607  0.79190118    -0.02600
C2206       C  0.42112236  0.55195125  0.78279073     0.07100
C2207       C  0.43732694  0.53939023  0.79123636    -0.02700
C2208       C  0.43015600  0.52892901  0.80848598    -0.02700
C2209       C  0.40599930  0.53006979  0.81751754     0.07200
C2210       C  0.39005855  0.54298331  0.80904441    -0.02900
Br2211     Br  0.35688848  0.54562071  0.82025279    -0.01500
Br2212     Br  0.37570379  0.57168994  0.78128384    -0.01600
Br2213     Br  0.45484514  0.51429939  0.81976767    -0.01500
Br2214     Br  0.46856958  0.53494327  0.77894207    -0.01500
C2215       C  0.25166469  0.51332642  0.85163312    -0.02600
C2216       C  0.26127881  0.49880781  0.83914755     0.07100
C2217       C  0.26471410  0.50919748  0.82195434    -0.02700
C2218       C  0.26012731  0.53414063  0.81751584    -0.02700
C2219       C  0.25117936  0.54920170  0.83016556     0.07200
C2220       C  0.24614196  0.53763106  0.84719787    -0.02900
Br2221     Br  0.23004031  0.55391757  0.86444901    -0.01500
Br2222     Br  0.24675047  0.50043966  0.87535353    -0.01600
Br2223     Br  0.26780064  0.54821405  0.79387364    -0.01500
Br2224     Br  0.27738304  0.48993608  0.80459631    -0.01500
C2225       C  0.25078005  0.75649560  0.85809355    -0.02600
C2226       C  0.26731191  0.75144873  0.84487457     0.07100
C2227       C  0.28881256  0.77724349  0.83522205    -0.02700
C2228       C  0.29356245  0.80714425  0.83870083    -0.02700
C2229       C  0.27558539  0.81178630  0.85120526     0.07200
C2230       C  0.25441773  0.78604681  0.86100035    -0.02900
Br2231     Br  0.22917662  0.79102297  0.87812474    -0.01500
Br2232     Br  0.22159767  0.72211530  0.87165910    -0.01600
Br2233     Br  0.32551734  0.84203479  0.82671831    -0.01500
Br2234     Br  0.31146806  0.77132732  0.81685414    -0.01500
C2235       C  0.34934712  0.91027831  0.96431427    -0.02600
C2236       C  0.36139445  0.90467911  0.94908008     0.07100
C2237       C  0.38287799  0.89452019  0.95032114    -0.02700
C2238       C  0.39039164  0.88752345  0.96657798    -0.02700
C2239       C  0.37892272  0.89377470  0.98198827     0.07200
C2240       C  0.35910446  0.90615484  0.98068260    -0.02900
Br2241     Br  0.34612847  0.91872422  0.00122475    -0.01500
Br2242     Br  0.31826229  0.92218433  0.96276911    -0.01600
Br2243     Br  0.41402980  0.86671150  0.96699879    -0.01500
Br2244     Br  0.40313639  0.89144818  0.92972321    -0.01500
C2245       C  0.43405464  0.58915930  0.05921334    -0.02600
C2246       C  0.45269627  0.60047457  0.07425601     0.07100
C2247       C  0.48420907  0.62239082  0.07248850    -0.02700
C2248       C  0.49692003  0.63241463  0.05590579    -0.02700
C2249       C  0.47861531  0.61968283  0.04088670     0.07200
C2250       C  0.44716813  0.59806648  0.04260105    -0.02900
Br2251     Br  0.42265558  0.57891093  0.02218387    -0.01500
Br2252     Br  0.39015087  0.56240634  0.06117747    -0.01600
Br2253     Br  0.04033287  0.64927985  0.05333736    -0.01500
Br2254     Br  0.51075400  0.63729276  0.09256409    -0.01500
C2255       C  0.13162733  0.64551986  0.90341859    -0.02600
C2256       C  0.10971859  0.65516568  0.90511357     0.07100
C2257       C  0.09950850  0.66373366  0.89015480    -0.02700
C2258       C  0.11020981  0.66139683  0.87362552    -0.02700
C2259       C  0.13125450  0.65074824  0.87199052     0.07200
C2260       C  0.14265464  0.64376911  0.88697255    -0.02900
Br2261     Br  0.17445484  0.63283007  0.88517551    -0.01500
Br2262     Br  0.14566965  0.63310254  0.92344208    -0.01600
Br2263     Br  0.09579469  0.67228600  0.85319681    -0.01500
Br2264     Br  0.07189663  0.67994468  0.89215002    -0.01500
C2265       C  0.41240419  0.59892942  0.90971922    -0.02600
C2266       C  0.38635474  0.57236117  0.91569769     0.07100
C2267       C  0.37905766  0.56947001  0.93352166    -0.02700
C2268       C  0.40195543  0.58777131  0.94558494    -0.02700
C2269       C  0.43038046  0.61130678  0.93952769     0.07200
C2270       C  0.43408732  0.61903247  0.92177452    -0.02900
Br2271     Br  0.47092152  0.65481834  0.91376853    -0.01500
Br2272     Br  0.42139232  0.60482605  0.88527335    -0.01600
Br2273     Br  0.39656638  0.57675969  0.96973787    -0.01500
Br2274     Br  0.33953309  0.53709790  0.94125153    -0.01500
C2275       C  0.16921734  0.79357063  0.91501166    -0.02600
C2276       C  0.17234369  0.77876026  0.92973263     0.07100
C2277       C  0.20205689  0.78963794  0.93707308    -0.02700
C2278       C  0.22711905  0.81726768  0.93133143    -0.02700
C2279       C  0.22335488  0.83302939  0.91745968     0.07200
C2280       C  0.19466892  0.82062444  0.90889549    -0.02900
Br2281     Br  0.19044823  0.83972798  0.88822240    -0.01500
Br2282     Br  0.13097244  0.77547593  0.90211462    -0.01600
Br2283     Br  0.26642616  0.83465988  0.94316748    -0.01500
Br2284     Br  0.20994485  0.76715544  0.95458834    -0.01500
C2285       C  0.48361768  0.73002717  0.02340101    -0.02600
C2286       C  0.50233634  0.74446244  0.00887373     0.07100
C2287       C  0.49435917  0.76226898  0.99811805    -0.02700
C2288       C  0.46903957  0.76648318  0.00216944    -0.02700
C2289       C  0.45003828  0.75160420  0.01653414     0.07200
C2290       C  0.45755474  0.73316727  0.02705029    -0.02900
Br2291     Br  0.43150953  0.71139168  0.04648959    -0.01500
Br2292     Br  0.49252022  0.70415471  0.03778524    -0.01600
Br2293     Br  0.46159614  0.79418568  0.98855749    -0.01500
Br2294     Br  0.51809628  0.78078794  0.97749488    -0.01500
C2295       C  0.25031304  0.78058234  0.99909973    -0.02600
C2296       C  0.26018453  0.75999837  0.00479430     0.07100
C2297       C  0.23733776  0.72975738  0.00880297    -0.02700
C2298       C  0.20553434  0.72067372  0.00752875    -0.02700
C2299       C  0.19589946  0.74195053  0.00296375     0.07200
C2300       C  0.21878002  0.77223184  0.99923940    -0.02900
Br2301     Br  0.20672017  0.80229745  0.99402155    -0.01500
Br2302     Br  0.28019766  0.81996035  0.98981654    -0.01600
Br2303     Br  0.17484839  0.67891061  0.01246726    -0.01500
Br2304     Br  0.24954920  0.70074578  0.01595637    -0.01500
Zr2305     Zr  0.50309874  0.17005769  0.98392370     2.17500
O2306       O  0.95383259  0.16116369  0.99079435    -0.52100
O2307       O  0.98542202  0.13924869  0.01156688    -0.75300
O2308       O  0.96025216  0.13846726  0.96469781    -0.82100
O2309       O  0.54610345  0.23846757  0.01032732    -0.83800
O2310       O  0.97822486  0.12231724  0.94239298    -0.79500
O2311       O  0.01117520  0.21642426  0.98951865    -0.91100
O2312       O  0.50991742  0.12072762  0.01971832    -0.77100
O2313       O  0.51076673  0.12775308  0.97832742    -0.86600
O2314       O  0.54194703  0.17651749  0.00437917    -0.86200
O2315       O  0.52066598  0.17680078  0.95430952    -0.73000
O2316       O  0.54811880  0.21934137  0.97862851    -0.85100
Zr2317     Zr  0.61041591  0.18777601  0.96305272     2.26400
Zr2318     Zr  0.52985939  0.13490911  0.94920928     2.06300
Zr2319     Zr  0.58631990  0.22539642  0.99928552     2.10000
Zr2320     Zr  0.54998474  0.13435197  0.99837576     1.78800
O2321       O  0.61360734  0.28113758  0.99791614    -0.93900
O2322       O  0.51782552  0.07858476  0.99842117    -0.41700
O2323       O  0.59450897  0.18309384  0.99290409    -0.78400
O2324       O  0.56779452  0.13800876  0.96893974    -0.97100
O2325       O  0.57207217  0.18313635  0.94503113    -0.90400
O2326       O  0.60410601  0.23072297  0.97010963    -0.93200
C2327       C  0.99175016  0.12248237  0.02138406     1.00500
C2328       C  0.52131487  0.23511777  0.00279010     1.13500
C2329       C  0.95710757  0.12518107  0.95003408     1.04300
O2330       O  0.51707243  0.08296336  0.95740199    -0.95400
O2331       O  0.56364394  0.13908629  0.92555814    -0.91100
O2332       O  0.61301668  0.16804112  0.93473308    -0.84300
C2333       C  0.59282946  0.15196508  0.92318281     1.10900
O2334       O  0.52912003  0.24096218  0.94139051    -0.97300
Zr2335     Zr  0.56640315  0.22518088  0.94953296     1.88900
O2336       O  0.64363218  0.22880333  0.94401034    -0.74000
O2337       O  0.50697521  0.10421620  0.92295472    -0.53300
O2338       O  0.55730298  0.21494184  0.91872183    -0.97900
O2339       O  0.58257641  0.27971004  0.95252260    -0.55100
O2340       O  0.61797705  0.25374757  0.93763650    -0.74500
C2341       C  0.64191510  0.25070243  0.93681265     0.97800
O2342       O  0.64159246  0.16303566  0.96632663    -0.63300
O2343       O  0.59323457  0.22818094  0.03063951    -0.58100
O2344       O  0.65488808  0.21560029  0.98099767    -0.94800
O2345       O  0.64107079  0.23591584  0.00354580    -0.93200
O2346       O  0.57983176  0.14748327  0.02510809    -0.93600
O2347       O  0.57756397  0.10607178  0.00104709    -0.92400
C2348       C  0.66060044  0.23031290  0.99529925     1.16700
H2349       H  0.53683800  0.17779083  0.01632949     0.32600
H2350       H  0.57324233  0.12236457  0.96646984     0.43500
H2351       H  0.62311378  0.25001124  0.96928146     0.37000
H2352       H  0.50619711  0.17749427  0.94635404     0.33500
H2353       H  0.51583367  0.07263118  0.01078038     0.25300
H2354       H  0.48775877  0.08560549  0.92650655     0.31200
H2355       H  0.55924576  0.23392131  0.91377360     0.37100
H2356       H  0.56817222  0.12952261  0.03270201     0.31600
H2357       H  0.61138997  0.24865103  0.03283660     0.30500
H2358       H  0.62857826  0.28791763  0.00760128     0.32100
H2359       H  0.58992615  0.28846857  0.94086764     0.31100
H2360       H  0.59872248  0.12050294  0.99705430     0.35100
H2361       H  0.64068765  0.15830487  0.97880247     0.27800
H2362       H  0.95442426  0.16595968  0.00327572     0.32100
H2363       H  0.51456139  0.23477328  0.95123987     0.34900
H2364       H  0.57565333  0.22968351  0.03539809     0.27500
H2365       H  0.62931652  0.14266715  0.96077662     0.40400
H2366       H  0.49426475  0.07120062  0.95792740     0.30500
H2367       H  0.49700505  0.07441580  0.99508260     0.38100
H2368       H  0.60151579  0.28852868  0.95970092     0.29900
H2369       H  0.50014085  0.11595020  0.91573590     0.30000
H2370       H  0.95324426  0.17830325  0.98489712     0.30200
Zr2371     Zr  0.83918835  0.99853786  0.86984830     2.17500
O2372       O  0.83786428  0.04542614  0.86339557    -0.52100
O2373       O  0.87755390  0.02327512  0.84660992    -0.75300
O2374       O  0.86319321  0.03936836  0.89172713    -0.82100
O2375       O  0.76996499  0.45566439  0.84290210    -0.83800
O2376       O  0.87877256  0.02030064  0.91341991    -0.79500
O2377       O  0.79705387  0.99949368  0.85585877    -0.91100
O2378       O  0.89242088  0.99044778  0.83641115    -0.77100
O2379       O  0.88353818  0.49243104  0.87775502    -0.86600
O2380       O  0.83998374  0.46348244  0.84874984    -0.86200
O2381       O  0.82838739  0.48071449  0.89818932    -0.73000
O2382       O  0.79206715  0.45635505  0.87132732    -0.85100
Zr2383     Zr  0.81852298  0.39098441  0.88975955     2.26400
Zr2384     Zr  0.86907658  0.47099800  0.90613884     2.06300
Zr2385     Zr  0.78977087  0.41899289  0.85109695     2.10000
Zr2386     Zr  0.88038850  0.45430721  0.85797178     1.78800
O2387       O  0.73571192  0.38792667  0.84315823    -0.93900
O2388       O  0.93489972  0.48633388  0.86531675    -0.41700
O2389       O  0.83026982  0.40987481  0.86060974    -0.78400
O2390       O  0.86937081  0.43399516  0.88693175    -0.97100
O2391       O  0.81880723  0.42751573  0.90922500    -0.90400
O2392       O  0.77799196  0.39924588  0.87978691    -0.93200
C2393       C  0.89105827  0.01507962  0.83530903     1.00500
C2394       C  0.77751458  0.48413259  0.84645171     1.13500
C2395       C  0.87531344  0.04143072  0.90664554     1.04300
O2396       O  0.92301700  0.48557708  0.90260488    -0.95400
O2397       O  0.86397374  0.43604297  0.92864238    -0.91100
O2398       O  0.83620576  0.38713619  0.91867441    -0.84300
C2399       C  0.85187873  0.40710902  0.93043327     1.10900
O2400       O  0.76598618  0.47519818  0.90779715    -0.97300
Zr2401     Zr  0.77832122  0.43549279  0.89977577     1.88900
O2402       O  0.77055600  0.35656711  0.90404835    -0.74000
O2403       O  0.88665315  0.48499733  0.93604726    -0.53300
O2404       O  0.77166979  0.43818329  0.93091319    -0.97900
O2405       O  0.72747669  0.41817366  0.88731287    -0.55100
O2406       O  0.74671995  0.38367247  0.91088861    -0.74500
C2407       C  0.74807759  0.35882175  0.91040568     0.97800
O2408       O  0.84237627  0.35888470  0.88839380    -0.63300
O2409       O  0.80090468  0.41917570  0.82035168    -0.58100
O2410       O  0.79420583  0.34823157  0.87068898    -0.94800
O2411       O  0.77757496  0.36341580  0.84723853    -0.93200
O2412       O  0.87786159  0.43015567  0.83011772    -0.93600
O2413       O  0.90737325  0.42520570  0.85726265    -0.92400
C2414       C  0.78139253  0.34317519  0.85586206     1.16700
H2415       H  0.84198102  0.47028150  0.83693226     0.32600
H2416       H  0.88435234  0.42857258  0.89060098     0.43500
H2417       H  0.75827866  0.38065845  0.87914729     0.37000
H2418       H  0.82672545  0.49484486  0.90600141     0.33500
H2419       H  0.94629421  0.48465498  0.85526333     0.25300
H2420       H  0.90611684  0.50491805  0.93564555     0.31200
H2421       H  0.79100097  0.45633727  0.93487763     0.37100
H2422       H  0.85639213  0.41299625  0.82925076     0.31600
H2423       H  0.79684431  0.39815892  0.81785246     0.30500
H2424       H  0.72432514  0.38862717  0.85348922     0.32100
H2425       H  0.73127801  0.42981677  0.87643955     0.31100
H2426       H  0.89149730  0.40404200  0.86030547     0.35100
H2427       H  0.84805366  0.35899700  0.87607681     0.27800
H2428       H  0.85961421  0.06207430  0.86278819     0.32100
H2429       H  0.74684196  0.46497940  0.91473964     0.34900
H2430       H  0.78397218  0.42034346  0.81443407     0.27500
H2431       H  0.86246933  0.37103649  0.89426959     0.40400
H2432       H  0.93429476  0.50825060  0.90333462     0.30500
H2433       H  0.93899742  0.50771450  0.86493895     0.38100
H2434       H  0.71696268  0.42585189  0.89501551     0.29900
H2435       H  0.87153928  0.48941229  0.94172263     0.30000
H2436       H  0.82917375  0.05030504  0.87368030     0.30200
Zr2437     Zr  0.84401626  0.32199011  0.31742062     2.17500
O2438       O  0.84707311  0.27746656  0.32736659    -0.52100
O2439       O  0.88160407  0.33639290  0.34116239    -0.75300
O2440       O  0.86404627  0.30099616  0.29536420    -0.82100
O2441       O  0.77307446  0.29764559  0.34501025    -0.83800
O2442       O  0.87639351  0.33198752  0.27207545    -0.79500
O2443       O  0.80168702  0.28006713  0.33139185    -0.91100
O2444       O  0.90458101  0.38757062  0.34627025    -0.77100
O2445       O  0.88408456  0.37000299  0.30728933    -0.86600
O2446       O  0.84250187  0.35885139  0.33672089    -0.86200
O2447       O  0.82764878  0.32491098  0.28843450    -0.73000
O2448       O  0.79331235  0.31628497  0.31581229    -0.85100
Zr2449     Zr  0.81813778  0.40549203  0.29445161     2.26400
Zr2450     Zr  0.86801899  0.37396573  0.27870633     2.06300
Zr2451     Zr  0.79201740  0.35310621  0.33504539     2.10000
Zr2452     Zr  0.88200364  0.40715424  0.32587943     1.78800
O2453       O  0.73809008  0.32991036  0.34360113    -0.93900
O2454       O  0.93698585  0.43353520  0.31935268    -0.41700
O2455       O  0.83163296  0.40106059  0.32372005    -0.78400
O2456       O  0.86917020  0.41307625  0.29666842    -0.97100
O2457       O  0.81738679  0.36758878  0.27577523    -0.90400
O2458       O  0.77832259  0.35814936  0.30615139    -0.93200
C2459       C  0.89981283  0.36070855  0.34982887     1.00500
C2460       C  0.77969070  0.27600963  0.34134928     1.13500
C2461       C  0.87351575  0.30823795  0.27971074     1.04300
O2462       O  0.92184401  0.41108169  0.28450660    -0.95400
O2463       O  0.86396135  0.40381464  0.25553183    -0.91100
O2464       O  0.84176051  0.42963263  0.26687682    -0.84300
C2465       C  0.85535649  0.42381871  0.25451915     1.10900
O2466       O  0.76363698  0.26822876  0.27874675    -0.97300
Zr2467     Zr  0.77787207  0.32040344  0.28723275     1.88900
O2468       O  0.76843418  0.38938686  0.28070897    -0.74000
O2469       O  0.89161151  0.37751675  0.25039321    -0.53300
O2470       O  0.77356070  0.31039230  0.25612866    -0.97900
O2471       O  0.72905538  0.28375267  0.30052927    -0.55100
O2472       O  0.74372461  0.33769450  0.27678344    -0.74500
C2473       C  0.74521511  0.36377777  0.27593576     0.97800
O2474       O  0.83375925  0.45994472  0.29367868    -0.63300
O2475       O  0.80572335  0.36723164  0.36530847    -0.58100
O2476       O  0.80134047  0.42999980  0.31450369    -0.94800
O2477       O  0.78114494  0.39787552  0.33749322    -0.93200
O2478       O  0.87992559  0.43040300  0.35324512    -0.93600
O2479       O  0.90390900  0.46254895  0.32444727    -0.92400
C2480       C  0.78712709  0.42268541  0.32890378     1.16700
H2481       H  0.84565258  0.35555044  0.34862523     0.32600
H2482       H  0.88398797  0.43314761  0.29225471     0.43500
H2483       H  0.75858706  0.35713449  0.30707248     0.37000
H2484       H  0.82428755  0.30785022  0.28116759     0.33500
H2485       H  0.94708467  0.44657302  0.32965389     0.25300
H2486       H  0.91007613  0.37551862  0.25238275     0.31200
H2487       H  0.75214865  0.30471878  0.25308044     0.37100
H2488       H  0.85984898  0.42979684  0.35310866     0.31600
H2489       H  0.79397855  0.37745360  0.36875717     0.30500
H2490       H  0.73406948  0.34711699  0.34532066     0.32100
H2491       H  0.71301712  0.28171857  0.29226287     0.31100
H2492       H  0.88785420  0.46542863  0.31870387     0.35100
H2493       H  0.85562631  0.47089218  0.29005608     0.27800
H2494       H  0.86923054  0.28372778  0.32728358     0.32100
H2495       H  0.74233907  0.25885994  0.27418262     0.34900
H2496       H  0.79558892  0.34748807  0.37157155     0.27500
H2497       H  0.82229690  0.46228762  0.28389925     0.40400
H2498       H  0.93351762  0.40127524  0.28018573     0.30500
H2499       H  0.94288405  0.41746972  0.31976269     0.38100
H2500       H  0.72688551  0.29483754  0.31058843     0.29900
H2501       H  0.87709927  0.35883665  0.24384703     0.30000
H2502       H  0.83764452  0.26149895  0.31823632     0.30200
Zr2503     Zr  0.50199277  0.31950828  0.20384430     2.17500
O2504       O  0.95431475  0.27055951  0.19381870    -0.52100
O2505       O  0.98153325  0.32777720  0.17575339    -0.75300
O2506       O  0.95908066  0.30142380  0.22229104    -0.82100
O2507       O  0.54466917  0.29256861  0.17734490    -0.83800
O2508       O  0.97631447  0.33441950  0.24510725    -0.79500
O2509       O  0.00606146  0.27363786  0.19362918    -0.91100
O2510       O  0.51233629  0.38107870  0.17063277    -0.77100
O2511       O  0.51065608  0.36901037  0.21176237    -0.86600
O2512       O  0.54192218  0.35333687  0.18466587    -0.86200
O2513       O  0.51819332  0.32568931  0.23374356    -0.73000
O2514       O  0.54539627  0.31220112  0.20833978    -0.85100
Zr2515     Zr  0.60976357  0.40217421  0.22719481     2.26400
Zr2516     Zr  0.52826769  0.37628857  0.24112930     2.06300
Zr2517     Zr  0.58464805  0.34554957  0.18877613     2.10000
Zr2518     Zr  0.55134336  0.40318493  0.19309141     1.78800
O2519       O  0.61467719  0.31971722  0.18628585    -0.93900
O2520       O  0.52087740  0.42854272  0.19642260    -0.41700
O2521       O  0.59423389  0.39549396  0.19740580    -0.78400
O2522       O  0.56827629  0.41224738  0.22283180    -0.97100
O2523       O  0.57078352  0.36814494  0.24624871    -0.90400
O2524       O  0.60056705  0.35279442  0.21829395    -0.93200
C2525       C  0.98863025  0.35092049  0.16592427     1.00500
C2526       C  0.51860721  0.27115786  0.18372333     1.13500
C2527       C  0.95568283  0.31069785  0.23716464     1.04300
O2528       O  0.51628152  0.41649277  0.23447498    -0.95400
O2529       O  0.56322496  0.40422538  0.26487857    -0.91100
O2530       O  0.61248518  0.42437993  0.25548597    -0.84300
C2531       C  0.59249119  0.42035885  0.26708418     1.10900
O2532       O  0.52100485  0.26692442  0.24374141    -0.97300
Zr2533     Zr  0.56184277  0.31907737  0.23775801     1.88900
O2534       O  0.64191042  0.38725337  0.24280062    -0.74000
O2535       O  0.50635871  0.38277002  0.26807750    -0.53300
O2536       O  0.55236982  0.31289657  0.26883539    -0.97900
O2537       O  0.57728478  0.28167400  0.23003209    -0.55100
O2538       O  0.61188035  0.33768474  0.25104444    -0.74500
C2539       C  0.63764327  0.36278800  0.25023459     0.97800
O2540       O  0.64883693  0.45642262  0.22735251    -0.63300
O2541       O  0.58792535  0.35323426  0.15763473    -0.58100
O2542       O  0.65195115  0.42189872  0.20779095    -0.94800
O2543       O  0.64012672  0.38867271  0.18521870    -0.93200
O2544       O  0.58064879  0.42487867  0.16665393    -0.93600
O2545       O  0.58531864  0.45860861  0.19394989    -0.92400
C2546       C  0.65904512  0.41367700  0.19370973     1.16700
H2547       H  0.53687942  0.34854394  0.17257521     0.32600
H2548       H  0.57451204  0.43296838  0.22633335     0.43500
H2549       H  0.61854402  0.35063332  0.21859965     0.37000
H2550       H  0.50355847  0.30977782  0.24119442     0.33500
H2551       H  0.52161968  0.43750368  0.18491397     0.25300
H2552       H  0.48638253  0.38111183  0.26499291     0.31200
H2553       H  0.56255167  0.30141490  0.27275582     0.37100
H2554       H  0.57021022  0.43474833  0.16086661     0.31600
H2555       H  0.59644893  0.37558825  0.15634024     0.30500
H2556       H  0.60041399  0.29839381  0.18994357     0.32100
H2557       H  0.58092729  0.27459705  0.24126369     0.31100
H2558       H  0.60631139  0.46148883  0.19512953     0.35100
H2559       H  0.63743696  0.46750243  0.22957089     0.27800
H2560       H  0.93797243  0.27616312  0.19316505     0.32100
H2561       H  0.50631596  0.26158284  0.23399761     0.34900
H2562       H  0.60484632  0.34966463  0.15395131     0.27500
H2563       H  0.66140648  0.45971300  0.23787918     0.40400
H2564       H  0.49347947  0.40591368  0.23413001     0.30500
H2565       H  0.49931104  0.41172764  0.19756042     0.38100
H2566       H  0.59808504  0.29389874  0.22493501     0.29900
H2567       H  0.50094321  0.36427715  0.27503649     0.30000
H2568       H  0.94851803  0.25621059  0.20367089     0.30200
Zr2569     Zr  0.83505978  0.49011720  0.15128459     2.17500
O2570       O  0.78430936  0.44410521  0.15339822    -0.52100
O2571       O  0.84816763  0.46820730  0.17574435    -0.75300
O2572       O  0.82889867  0.44733172  0.13367818    -0.82100
O2573       O  0.80445741  0.03134309  0.17726094    -0.83800
O2574       O  0.85090826  0.46859503  0.10802532    -0.79500
O2575       O  0.79136500  0.48606427  0.16586249    -0.91100
O2576       O  0.89717382  0.50138303  0.18406874    -0.77100
O2577       O  0.88435831  0.99933658  0.14165500    -0.86600
O2578       O  0.86870503  0.02803743  0.17070063    -0.86200
O2579       O  0.83636786  0.00564062  0.12185582    -0.73000
O2580       O  0.82543039  0.03071721  0.14831847    -0.85100
Zr2581     Zr  0.91511269  0.09762411  0.12853386     2.26400
Zr2582     Zr  0.88717048  0.01744303  0.11273590     2.06300
Zr2583     Zr  0.85953202  0.07004227  0.16787044     2.10000
Zr2584     Zr  0.91864245  0.03891034  0.16086187     1.78800
O2585       O  0.83210400  0.09813444  0.17254050    -0.93900
O2586       O  0.93903256  0.00507956  0.15390203    -0.41700
O2587       O  0.90974347  0.08114609  0.15804542    -0.78400
O2588       O  0.92507940  0.05610741  0.13124628    -0.97100
O2589       O  0.87883950  0.05974075  0.10968938    -0.90400
O2590       O  0.86613895  0.08848713  0.13886286    -0.93200
C2591       C  0.87090028  0.47728086  0.18630104     1.00500
C2592       C  0.78357038  0.50407631  0.17297694     1.13500
C2593       C  0.83496453  0.44566469  0.11777347     1.04300
O2594       O  0.92306509  0.99823784  0.11538330    -0.95400
O2595       O  0.91653810  0.05247953  0.08970925    -0.91100
O2596       O  0.93663422  0.10121921  0.09980365    -0.84300
C2597       C  0.93272557  0.08159945  0.08793880     1.10900
O2598       O  0.77798137  0.01310298  0.11039929    -0.97300
Zr2599     Zr  0.83014516  0.04994738  0.11975422     1.88900
O2600       O  0.89983649  0.12685904  0.11081765    -0.74000
O2601       O  0.88860389  0.00091161  0.08308388    -0.53300
O2602       O  0.82451813  0.04475839  0.08838741    -0.97900
O2603       O  0.79187682  0.06152114  0.13164049    -0.55100
O2604       O  0.84790783  0.10115433  0.10909662    -0.74500
C2605       C  0.87430326  0.12486353  0.10648199     0.97800
O2606       O  0.97079853  0.13215755  0.12822040    -0.63300
O2607       O  0.86873780  0.07118055  0.19893933    -0.58100
O2608       O  0.93227782  0.14093963  0.14742942    -0.94800
O2609       O  0.90301282  0.12506396  0.17197892    -0.93200
O2610       O  0.94631666  0.06647317  0.18685793    -0.93600
O2611       O  0.97461399  0.07078565  0.16031837    -0.92400
C2612       C  0.92604627  0.14550973  0.16281935     1.16700
H2613       H  0.86427781  0.02222325  0.18272513     0.32600
H2614       H  0.94543937  0.06198486  0.12715321     0.43500
H2615       H  0.86476879  0.10695012  0.13913816     0.37000
H2616       H  0.81950041  0.98999351  0.11519640     0.33500
H2617       H  0.95643469  0.01111281  0.16203481     0.25300
H2618       H  0.88779040  0.98090731  0.08397656     0.31200
H2619       H  0.82241485  0.02450848  0.08574896     0.37100
H2620       H  0.93022176  0.06613275  0.19448758     0.31600
H2621       H  0.86943504  0.09016380  0.20312207     0.30500
H2622       H  0.84497979  0.11822029  0.16692143     0.32100
H2623       H  0.78769615  0.07222054  0.12221373     0.31100
H2624       H  0.97860495  0.08961681  0.15416267     0.35100
H2625       H  0.97742793  0.13552729  0.14048903     0.27800
H2626       H  0.78790339  0.42718199  0.15680187     0.32100
H2627       H  0.77076944  0.02497816  0.10361106     0.34900
H2628       H  0.84930401  0.05436698  0.20371596     0.27500
H2629       H  0.97929423  0.11946870  0.12369340     0.40400
H2630       H  0.94675024  0.52088237  0.10960175     0.30500
H2631       H  0.92311964  0.98450748  0.15784579     0.38100
H2632       H  0.80322895  0.07769613  0.14044101     0.29900
H2633       H  0.86862754  0.99614165  0.07782588     0.30000
H2634       H  0.77600296  0.43910034  0.14144491     0.30200
Zr2635     Zr  0.84236550  0.33249619  0.03393746     2.17500
O2636       O  0.80070085  0.34260057  0.02689135    -0.52100
O2637       O  0.85631094  0.36352918  0.00782927    -0.75300
O2638       O  0.83389302  0.36334295  0.05560249    -0.82100
O2639       O  0.80655197  0.25876407  0.00817234    -0.83800
O2640       O  0.88236000  0.39194320  0.06366405    -0.79500
O2641       O  0.79598521  0.29267068  0.02186811    -0.91100
O2642       O  0.90564202  0.37851319  0.00040501    -0.77100
O2643       O  0.89397758  0.36845632  0.04163655    -0.86600
O2644       O  0.87295519  0.32138747  0.01439187    -0.86200
O2645       O  0.84596534  0.31998427  0.06368743    -0.73000
O2646       O  0.82842460  0.27962815  0.03779702    -0.85100
Zr2647     Zr  0.91691056  0.29579879  0.05676933     2.26400
Zr2648     Zr  0.89841900  0.35573282  0.07098700     2.06300
Zr2649     Zr  0.85949209  0.26917143  0.01846948     2.10000
Zr2650     Zr  0.92476363  0.35782025  0.02255218     1.78800
O2651       O  0.82831218  0.21353747  0.01660223    -0.93900
O2652       O  0.95435580  0.41274356  0.02834491    -0.41700
O2653       O  0.91126265  0.30559834  0.02697713    -0.78400
O2654       O  0.93194772  0.34824792  0.05225747    -0.97100
O2655       O  0.88433879  0.30375174  0.07532698    -0.90400
O2656       O  0.86573577  0.25873537  0.04775779    -0.93200
C2657       C  0.87936977  0.37638093  0.99749931     1.00500
C2658       C  0.78843796  0.26989934  0.01179273     1.13500
C2659       C  0.85431390  0.38474262  0.06506173     1.04300
O2660       O  0.94637575  0.40264459  0.07762490    -0.95400
O2661       O  0.92546773  0.34855919  0.09458841    -0.91100
O2662       O  0.93628902  0.31146685  0.08630893    -0.84300
C2663       C  0.93614275  0.33058232  0.09741765     1.10900
O2664       O  0.78418176  0.26327333  0.07390780    -0.97300
Zr2665     Zr  0.83363193  0.26754256  0.06693116     1.88900
O2666       O  0.89898746  0.24988981  0.07312162    -0.74000
O2667       O  0.87202495  0.35598515  0.09751505    -0.53300
O2668       O  0.82494202  0.26619197  0.09804103    -0.97900
O2669       O  0.79113533  0.21862085  0.05714730    -0.55100
O2670       O  0.84893577  0.23315151  0.08010329    -0.74500
C2671       C  0.87348020  0.23099842  0.08023770     0.97800
O2672       O  0.97205148  0.31336143  0.05653428    -0.63300
O2673       O  0.86718527  0.27170632  0.98725348    -0.58100
O2674       O  0.92948462  0.26462373  0.03944352    -0.94800
O2675       O  0.90054237  0.25371963  0.01482353    -0.93200
O2676       O  0.94754772  0.35330234  0.99557353    -0.93600
O2677       O  0.97897274  0.37210972  0.02321427    -0.92400
C2678       C  0.92260746  0.25404512  0.02407482     1.16700
H2679       H  0.86855975  0.32242266  0.00237728     0.32600
H2680       H  0.95310745  0.36135478  0.05576814     0.43500
H2681       H  0.86189961  0.23799596  0.04808059     0.37000
H2682       H  0.83213017  0.32265469  0.07127757     0.33500
H2683       H  0.96878005  0.42122685  0.01845929     0.25300
H2684       H  0.88814885  0.36496924  0.10658889     0.31200
H2685       H  0.81011633  0.24442295  0.10057839     0.37100
H2686       H  0.96006468  0.37458822  0.99134030     0.31600
H2687       H  0.88984806  0.28231827  0.98582119     0.30500
H2688       H  0.81776463  0.20947099  0.00524643     0.32100
H2689       H  0.78725685  0.20445297  0.06689615     0.31100
H2690       H  0.97879795  0.35242926  0.02429851     0.35100
H2691       H  0.97798356  0.31518678  0.04418133     0.27800
H2692       H  0.80962312  0.36509732  0.02727431     0.32100
H2693       H  0.77923416  0.27188709  0.06370599     0.34900
H2694       H  0.86006076  0.25026217  0.98367352     0.27500
H2695       H  0.98205709  0.33484866  0.06071137     0.40400
H2696       H  0.95610623  0.41056980  0.06622452     0.30500
H2697       H  0.93965723  0.42026439  0.02662150     0.38100
H2698       H  0.80004056  0.21170219  0.04790964     0.29900
H2699       H  0.85946903  0.33411176  0.10069205     0.30000
H2700       H  0.78591152  0.33456612  0.03665752     0.30200
Zr2701     Zr  0.68054270  0.17102540  0.81875685     2.17500
O2702       O  0.67792606  0.21465051  0.83104350    -0.52100
O2703       O  0.65108101  0.16072416  0.84586955    -0.75300
O2704       O  0.65554369  0.19017730  0.79935266    -0.82100
O2705       O  0.75514330  0.19758250  0.84150134    -0.83800
O2706       O  0.63463006  0.15498395  0.77771985    -0.79500
O2707       O  0.72910145  0.21494552  0.82540332    -0.91100
O2708       O  0.62918825  0.11028907  0.85263433    -0.77100
O2709       O  0.63778580  0.12189559  0.81216594    -0.86600
O2710       O  0.68697792  0.13683926  0.83748738    -0.86200
O2711       O  0.68811785  0.16363873  0.78857177    -0.73000
O2712       O  0.72989673  0.17587927  0.81253069    -0.85100
Zr2713     Zr  0.69888443  0.08414969  0.79369571     2.26400
Zr2714     Zr  0.64519427  0.11365242  0.78243856     2.06300
Zr2715     Zr  0.73622308  0.14217019  0.83152415     2.10000
Zr2716     Zr  0.64467190  0.08728841  0.83023053     1.78800
O2717       O  0.79186169  0.16383108  0.83030347    -0.93900
O2718       O  0.58850833  0.06127269  0.82887710    -0.41700
O2719       O  0.69374880  0.09289221  0.82376218    -0.78400
O2720       O  0.64870348  0.07671830  0.80011480    -0.97100
O2721       O  0.69429050  0.11914782  0.77530421    -0.90400
O2722       O  0.74171433  0.13285771  0.80184923    -0.93200
C2723       C  0.63517842  0.13768836  0.85581069     1.00500
C2724       C  0.74981834  0.21934378  0.83641510     1.13500
C2725       C  0.64098397  0.18042872  0.78498652     1.04300
O2726       O  0.59249627  0.07757008  0.79105575    -0.95400
O2727       O  0.64510446  0.08211291  0.75861016    -0.91100
O2728       O  0.67566588  0.06230485  0.76558641    -0.84300
C2729       C  0.65739354  0.06560700  0.75527134     1.10900
O2730       O  0.75310166  0.21925017  0.77323480    -0.97300
Zr2731     Zr  0.73699601  0.16737553  0.78284270     1.88900
O2732       O  0.74456898  0.09660010  0.77729650    -0.74000
O2733       O  0.61753639  0.10814992  0.75537227    -0.53300
O2734       O  0.73178863  0.17159797  0.75174524    -0.97900
O2735       O  0.78792468  0.20960989  0.79008288    -0.55100
O2736       O  0.76812039  0.14714954  0.77056518    -0.74500
C2737       C  0.76670763  0.12097265  0.77078926     0.97800
O2738       O  0.68075151  0.02927753  0.79340263    -0.63300
O2739       O  0.73718935  0.13686099  0.86280005    -0.58100
O2740       O  0.72117588  0.06290321  0.81244870    -0.94800
O2741       O  0.74420805  0.09612523  0.83497632    -0.93200
O2742       O  0.65371926  0.06986408  0.85780434    -0.93600
O2743       O  0.62440908  0.03214958  0.83174794    -0.92400
C2744       C  0.73686987  0.07076144  0.82645905     1.16700
H2745       H  0.68756989  0.14201550  0.84958857     0.32600
H2746       H  0.63297712  0.05619896  0.79698404     0.43500
H2747       H  0.76133164  0.13363110  0.80142949     0.37000
H2748       H  0.68931889  0.17951895  0.78122638     0.33500
H2749       H  0.58151909  0.05063864  0.84012278     0.25300
H2750       H  0.59823268  0.10782750  0.75863086     0.31200
H2751       H  0.73442531  0.15505579  0.74648041     0.37100
H2752       H  0.67395266  0.07103968  0.85643807     0.31600
H2753       H  0.75812589  0.14037002  0.86525885     0.30500
H2754       H  0.80036015  0.18626399  0.82963587     0.32100
H2755       H  0.80194040  0.20841438  0.78145428     0.31100
H2756       H  0.63940890  0.02864433  0.82518239     0.35100
H2757       H  0.65810281  0.01928057  0.79222158     0.27800
H2758       H  0.65587729  0.20874398  0.83102868     0.32100
H2759       H  0.74164670  0.22621196  0.78071261     0.34900
H2760       H  0.73725070  0.15517442  0.86761795     0.27500
H2761       H  0.68805385  0.02511015  0.78232115     0.40400
H2762       H  0.58150353  0.08932116  0.79023344     0.30500
H2763       H  0.58330804  0.07785346  0.82947721     0.38100
H2764       H  0.79326496  0.20366077  0.80118442     0.29900
H2765       H  0.62979108  0.12761361  0.74902529     0.30000
H2766       H  0.68754562  0.23135201  0.82242626     0.30200
Zr2767     Zr  0.52006848  0.18356932  0.70597605     2.17500
O2768       O  0.56556167  0.23238806  0.69854303    -0.52100
O2769       O  0.54470809  0.18166034  0.67866704    -0.75300
O2770       O  0.56201251  0.20010917  0.72694056    -0.82100
O2771       O  0.97191489  0.20052897  0.67897280    -0.83800
O2772       O  0.54629578  0.16078511  0.74582520    -0.79500
O2773       O  0.50767546  0.22328189  0.70189347    -0.91100
O2774       O  0.52037184  0.13234081  0.66903370    -0.77100
O2775       O  0.01057308  0.12913876  0.71165188    -0.86600
O2776       O  0.97836219  0.14484859  0.68548283    -0.86200
O2777       O  0.99788461  0.16681695  0.73565714    -0.73000
O2778       O  0.96967913  0.18029617  0.71097746    -0.85100
Zr2779     Zr  0.90955058  0.08516375  0.72626440     2.26400
Zr2780     Zr  0.99106864  0.11668994  0.74062534     2.06300
Zr2781     Zr  0.93244047  0.14722533  0.69026373     2.10000
Zr2782     Zr  0.97245052  0.09567683  0.69130931     1.78800
O2783       O  0.90557882  0.17637250  0.69159526    -0.93900
O2784       O  0.00523786  0.07274265  0.69320082    -0.41700
O2785       O  0.92647224  0.09769484  0.69663713    -0.78400
O2786       O  0.95434725  0.08104449  0.72060586    -0.97100
O2787       O  0.94603659  0.11992719  0.74616270    -0.90400
O2788       O  0.91453275  0.13389823  0.71921031    -0.93200
C2789       C  0.54051033  0.16082050  0.66747571     1.00500
C2790       C  0.49908967  0.22797519  0.68731083     1.13500
C2791       C  0.56576784  0.18752571  0.74038980     1.04300
O2792       O  0.00527676  0.07812164  0.73347552    -0.95400
O2793       O  0.95803884  0.08839884  0.76475314    -0.91100
O2794       O  0.90859985  0.06430881  0.75533058    -0.84300
C2795       C  0.92916259  0.07017878  0.76709062     1.10900
O2796       O  0.98732322  0.22003969  0.74926453    -0.97300
Zr2797     Zr  0.95090096  0.16794342  0.73981954     1.88900
O2798       O  0.87336154  0.09282034  0.74298171    -0.74000
O2799       O  0.01208326  0.10919849  0.76752126    -0.53300
O2800       O  0.95675588  0.16724077  0.77112029    -0.97900
O2801       O  0.93464058  0.20562143  0.73504849    -0.55100
O2802       O  0.89815204  0.14309496  0.75020366    -0.74500
C2803       C  0.87416419  0.11626381  0.75000174     0.97800
O2804       O  0.88084329  0.02933732  0.72473034    -0.63300
O2805       O  0.92122518  0.13799830  0.65942031    -0.58100
O2806       O  0.86599475  0.06704861  0.70745212    -0.94800
O2807       O  0.87707350  0.10406865  0.68716970    -0.93200
O2808       O  0.94826048  0.07975476  0.66290106    -0.93600
O2809       O  0.94130469  0.04032436  0.68771223    -0.92400
C2810       C  0.85868757  0.07773687  0.69444728     1.16700
H2811       H  0.98394742  0.15127176  0.67368963     0.32600
H2812       H  0.95007478  0.06036061  0.72292081     0.43500
H2813       H  0.89514846  0.13360417  0.71946881     0.37000
H2814       H  0.51446683  0.18406480  0.74381002     0.33500
H2815       H  0.00656382  0.06660746  0.68114689     0.25300
H2816       H  0.03192336  0.11045007  0.76451321     0.31200
H2817       H  0.95431811  0.18438425  0.77561348     0.37100
H2818       H  0.96221687  0.07504436  0.65610970     0.31600
H2819       H  0.90733692  0.14628194  0.65704242     0.30500
H2820       H  0.88529028  0.16223951  0.69677019     0.32100
H2821       H  0.91218029  0.19342030  0.73288916     0.31100
H2822       H  0.92000335  0.03565561  0.69027113     0.35100
H2823       H  0.89509025  0.02271485  0.72926897     0.27800
H2824       H  0.58325435  0.22872405  0.69853104     0.32100
H2825       H  0.00380693  0.22790062  0.74040846     0.34900
H2826       H  0.94078610  0.15245535  0.65364105     0.27500
H2827       H  0.86470222  0.02307368  0.73371952     0.40400
H2828       H  0.53321417  0.09384041  0.72909177     0.30500
H2829       H  0.53156875  0.09550953  0.69211592     0.38100
H2830       H  0.94347907  0.21467258  0.72364496     0.29900
H2831       H  0.01761611  0.12744826  0.77486396     0.30000
H2832       H  0.56928627  0.24626354  0.70854586     0.30200
Zr2833     Zr  0.52179873  0.32177169  0.48096972     2.17500
O2834       O  0.56640171  0.31917372  0.49162207    -0.52100
O2835       O  0.54424384  0.35208018  0.50782895    -0.75300
O2836       O  0.56449722  0.34467860  0.46015489    -0.82100
O2837       O  0.98028767  0.26339996  0.51069075    -0.83800
O2838       O  0.54785127  0.36368096  0.43881270    -0.79500
O2839       O  0.50934347  0.27045944  0.48716289    -0.91100
O2840       O  0.51816480  0.37692959  0.51472653    -0.77100
O2841       O  0.02382091  0.36719356  0.47114008    -0.86600
O2842       O  0.98874926  0.32468032  0.49924796    -0.86200
O2843       O  0.00982449  0.31161978  0.45086858    -0.73000
O2844       O  0.97955243  0.27591997  0.47742554    -0.85100
Zr2845     Zr  0.92205052  0.30910328  0.45640416     2.26400
Zr2846     Zr  0.00519750  0.35472119  0.44199349     2.06300
Zr2847     Zr  0.94237800  0.27688692  0.49648122     2.10000
Zr2848     Zr  0.98552613  0.36788429  0.48934081     1.78800
O2849       O  0.91136803  0.22138234  0.49887060    -0.93900
O2850       O  0.02229349  0.42165268  0.48383436    -0.48900
O2851       O  0.93854081  0.31993463  0.48617134    -0.78400
O2852       O  0.96792524  0.35804940  0.45973265    -0.97100
O2853       O  0.95892536  0.30656497  0.43819738    -0.90400
O2854       O  0.92591206  0.26670105  0.46718869    -0.93200
C2855       C  0.53854826  0.36927384  0.51786836     1.00500
C2856       C  0.50103116  0.25874670  0.50208954     1.13500
C2857       C  0.56792155  0.35824467  0.44559428     1.04300
O2858       O  0.02395458  0.40911247  0.44669277    -0.95400
O2859       O  0.97286671  0.35150654  0.41769020    -0.91100
O2860       O  0.92304966  0.32694766  0.42681271    -0.84300
C2861       C  0.94400237  0.34130979  0.41530309     1.10900
O2862       O  0.99861168  0.24752049  0.43998794    -0.97300
Zr2863     Zr  0.96204025  0.26389779  0.44837090     1.88900
O2864       O  0.88549797  0.26132928  0.44239994    -0.74000
O2865       O  0.02812026  0.37625136  0.41388201    -0.53300
O2866       O  0.96168861  0.25690448  0.41711925    -0.97900
O2867       O  0.94840541  0.21476631  0.46139964    -0.55100
O2868       O  0.90938989  0.23335697  0.43801450    -0.74500
C2869       C  0.88581019  0.23706270  0.43754601     0.97800
O2870       O  0.89377188  0.33689309  0.45429237    -0.63300
O2871       O  0.93414293  0.28258137  0.52704640    -0.58100
O2872       O  0.87794901  0.28944301  0.47518284    -0.94800
O2873       O  0.88814078  0.26884007  0.49864130    -0.93200
O2874       O  0.96081955  0.37219064  0.51555258    -0.93600
O2875       O  0.95771558  0.39597578  0.48665174    -0.92400
C2876       C  0.87003514  0.27531938  0.48962854     1.16700
H2877       H  0.99296292  0.32507092  0.51139822     0.32600
H2878       H  0.96434511  0.37413431  0.45553904     0.43500
H2879       H  0.90649591  0.24784316  0.46782251     0.37000
H2880       H  0.51713223  0.30898007  0.44367589     0.33500
H2881       H  0.01866536  0.43299745  0.49322417     0.25300
H2882       H  0.04820557  0.39485123  0.41634152     0.31200
H2883       H  0.97834295  0.27681332  0.41280072     0.37100
H2884       H  0.97492956  0.39311659  0.52002355     0.31600
H2885       H  0.91474862  0.26366068  0.52996441     0.30500
H2886       H  0.90027426  0.21792107  0.50999593     0.32100
H2887       H  0.94024847  0.19983328  0.45169378     0.31100
H2888       H  0.93566948  0.37995437  0.48642786     0.35100
H2889       H  0.88921177  0.34029598  0.46631179     0.27800
H2890       H  0.58373852  0.34057468  0.49184183     0.32100
H2891       H  0.01277074  0.25310325  0.45001568     0.34900
H2892       H  0.95033475  0.28047010  0.53317821     0.27500
H2893       H  0.90952458  0.35765850  0.45057740     0.40400
H2894       H  0.53650003  0.41871445  0.44706464     0.30500
H2895       H  0.53250616  0.42081900  0.48983268     0.38100
H2896       H  0.93012114  0.20970366  0.46859908     0.29900
H2897       H  0.03332923  0.36152930  0.40846164     0.30000
H2898       H  0.57170802  0.30899473  0.48230423     0.30200
Zr2899     Zr  0.68581816  0.49203357  0.37004093     2.17500
O2900       O  0.68608715  0.44697978  0.35816174    -0.52100
O2901       O  0.65555177  0.47082441  0.34337469    -0.75300
O2902       O  0.66139569  0.44819635  0.38937621    -0.82100
O2903       O  0.75983709  0.04179579  0.34709242    -0.83800
O2904       O  0.64063240  0.46216565  0.41123685    -0.79500
O2905       O  0.73582410  0.49938523  0.36421728    -0.91100
O2906       O  0.63001825  0.49653716  0.33763679    -0.77100
O2907       O  0.64280460  0.99961139  0.37844311    -0.86600
O2908       O  0.68975019  0.03342928  0.35168564    -0.86200
O2909       O  0.69582422  0.00858744  0.40016231    -0.73000
O2910       O  0.73470525  0.03752977  0.37532938    -0.85100
Zr2911     Zr  0.70428056  0.09864314  0.39569665     2.26400
Zr2912     Zr  0.65342970  0.01572999  0.40817047     2.06300
Zr2913     Zr  0.73930791  0.07733734  0.35671414     2.10000
Zr2914     Zr  0.64780262  0.04057764  0.36056483     1.78800
O2915       O  0.79523282  0.10825357  0.35514318    -0.93900
O2916       O  0.59197177  0.00958496  0.36337682    -0.41700
O2917       O  0.69712802  0.08457241  0.36557321    -0.78400
O2918       O  0.65433502  0.05515090  0.39066142    -0.97100
O2919       O  0.70253154  0.05994335  0.41378004    -0.90400
O2920       O  0.74627940  0.09223860  0.38624182    -0.93200
C2921       C  0.63753925  0.47624646  0.33406702     1.00500
C2922       C  0.75392437  0.51370736  0.35179111     1.13500
C2923       C  0.64665686  0.44311371  0.40365981     1.04300
O2924       O  0.59938693  0.99868294  0.40257681    -0.95400
O2925       O  0.65603331  0.04752932  0.43264144    -0.91100
O2926       O  0.68408040  0.09743081  0.42459071    -0.84300
C2927       C  0.66767113  0.07633137  0.43551297     1.10900
O2928       O  0.75997689  0.01681957  0.41253252    -0.97300
Zr2929     Zr  0.74462367  0.05424411  0.40487013     1.88900
O2930       O  0.75165675  0.13340498  0.41048486    -0.74000
O2931       O  0.62989632  0.99439884  0.43618200    -0.53300
O2932       O  0.74152061  0.04595281  0.43605355    -0.97900
O2933       O  0.79728098  0.06950483  0.39634800    -0.55100
O2934       O  0.77528380  0.10593636  0.41680108    -0.74500
C2935       C  0.77407166  0.13084244  0.41653010     0.97800
O2936       O  0.67871221  0.12893530  0.39908267    -0.63300
O2937       O  0.73683197  0.08308482  0.32554922    -0.58100
O2938       O  0.72547218  0.14230829  0.37706365    -0.94800
O2939       O  0.74963105  0.13258940  0.35494079    -0.93200
O2940       O  0.65338414  0.06783502  0.33365593    -0.93600
O2941       O  0.62478375  0.07327308  0.36217218    -0.92400
C2942       C  0.74195726  0.15053283  0.36338202     1.16700
H2943       H  0.68939171  0.02878193  0.33956718     0.32600
H2944       H  0.63859061  0.05963751  0.39437652     0.43500
H2945       H  0.76592671  0.11080691  0.38627123     0.37000
H2946       H  0.69782742  0.99389825  0.40717073     0.33500
H2947       H  0.58375469  0.01202527  0.35219233     0.25300
H2948       H  0.61026540  0.97540606  0.43359391     0.31200
H2949       H  0.74568755  0.06567626  0.44128378     0.37100
H2950       H  0.67591111  0.07995284  0.33173249     0.31600
H2951       H  0.74857896  0.10548993  0.32362657     0.30500
H2952       H  0.79921173  0.12540142  0.34735548     0.32100
H2953       H  0.80974132  0.09157024  0.39929232     0.31100
H2954       H  0.64255063  0.09438483  0.36288508     0.35100
H2955       H  0.67210472  0.13099923  0.38731952     0.27800
H2956       H  0.66441850  0.43004194  0.35839225     0.32100
H2957       H  0.77660439  0.02711876  0.42124580     0.34900
H2958       H  0.75005275  0.07549094  0.32056989     0.27500
H2959       H  0.69514616  0.14982721  0.40233803     0.40400
H2960       H  0.58662156  0.48171947  0.41120705     0.30500
H2961       H  0.58750042  0.98807812  0.36323895     0.38100
H2962       H  0.79680186  0.06896833  0.38352761     0.29900
H2963       H  0.64316985  0.98743587  0.44172426     0.30000
H2964       H  0.69674495  0.44115129  0.36686132     0.30200
Zr2965     Zr  0.67625343  0.50596116  0.65372991     2.17500
O2966       O  0.71057068  0.05594970  0.65665746    -0.52100
O2967       O  0.65610753  0.01572804  0.67935450    -0.75300
O2968       O  0.68235570  0.04225351  0.63395186    -0.82100
O2969       O  0.71358277  0.46884928  0.67930657    -0.83800
O2970       O  0.65361168  0.01750237  0.61043470    -0.79500
O2971       O  0.71994954  0.00866830  0.66869260    -0.91100
O2972       O  0.60787545  0.48415496  0.68462882    -0.77100
O2973       O  0.62542341  0.48774194  0.64287166    -0.86600
O2974       O  0.64404816  0.46346239  0.67211888    -0.86200
O2975       O  0.67739070  0.49115182  0.62383811    -0.73000
O2976       O  0.69324426  0.46908350  0.65098106    -0.85100
Zr2977     Zr  0.60929914  0.39465011  0.62799695     2.26400
Zr2978     Zr  0.62572232  0.47174554  0.61351078     2.06300
Zr2979     Zr  0.66033847  0.42646138  0.66899860     2.10000
Zr2980     Zr  0.59324573  0.44655255  0.66113218     1.78800
O2981       O  0.68707372  0.39773292  0.67345947    -0.93900
O2982       O  0.56605320  0.47484923  0.65624067    -0.41700
O2983       O  0.60965701  0.40967804  0.65765903    -0.78400
O2984       O  0.59114273  0.43024388  0.63126998    -0.97100
O2985       O  0.64334852  0.43610190  0.61054593    -0.90400
O2986       O  0.65984973  0.41136848  0.63964710    -0.93200
C2987       C  0.63156576  0.00474631  0.68859374     1.00500
C2988       C  0.73098903  0.49848504  0.67694819     1.13500
C2989       C  0.67197426  0.04172339  0.61867858     1.04300
O2990       O  0.57922178  0.46993872  0.60267875    -0.95400
O2991       O  0.60155201  0.43733215  0.58917452    -0.91100
O2992       O  0.59188957  0.39026023  0.59780187    -0.84300
C2993       C  0.59170630  0.40878008  0.58639853     1.10900
O2994       O  0.74458033  0.49828726  0.61910396    -0.97300
Zr2995     Zr  0.69335407  0.45362762  0.62188671     1.88900
O2996       O  0.63460072  0.36972391  0.61491348    -0.74000
O2997       O  0.65392062  0.50285439  0.58870921    -0.53300
O2998       O  0.70955914  0.46863943  0.59210084    -0.97900
O2999       O  0.73259450  0.44258333  0.63239037    -0.55100
O3000       O  0.68290034  0.40702499  0.60735256    -0.74500
C3001       C  0.66096403  0.37923000  0.60788191     0.97800
O3002       O  0.55658391  0.35502499  0.62116906    -0.63300
O3003       O  0.65399644  0.42391836  0.70035636    -0.58100
O3004       O  0.58933469  0.35313767  0.64818897    -0.94800
O3005       O  0.61757604  0.37087364  0.67299303    -0.93200
O3006       O  0.56822920  0.41364293  0.68585319    -0.93600
O3007       O  0.53851782  0.41039656  0.65701099    -0.92400
C3008       C  0.59504697  0.34939063  0.66383311     1.16700
H3009       H  0.64653012  0.46789184  0.68437874     0.32600
H3010       H  0.57044114  0.42139468  0.62675846     0.43500
H3011       H  0.66556610  0.39567613  0.63997899     0.37000
H3012       H  0.69163783  0.50842269  0.61695258     0.33500
H3013       H  0.55457863  0.47254302  0.66711551     0.25300
H3014       H  0.63799504  0.49817469  0.57976609     0.31200
H3015       H  0.69048022  0.45713971  0.58517669     0.37100
H3016       H  0.55570169  0.42180896  0.69112470     0.31600
H3017       H  0.63146532  0.41146040  0.70216966     0.30500
H3018       H  0.70645745  0.40900855  0.66682503     0.32100
H3019       H  0.72196635  0.42006021  0.63380953     0.31100
H3020       H  0.53749953  0.39071339  0.65408355     0.35100
H3021       H  0.54405628  0.35420834  0.63130974     0.27800
H3022       H  0.73164723  0.05889488  0.65680242     0.32100
H3023       H  0.74701652  0.51083866  0.62955162     0.34900
H3024       H  0.66212685  0.41055942  0.70419943     0.27500
H3025       H  0.55637351  0.33523578  0.62115414     0.40400
H3026       H  0.56671958  0.46725161  0.61316719     0.30500
H3027       H  0.58220494  0.49675588  0.65610278     0.38100
H3028       H  0.73662838  0.45076456  0.64436222     0.29900
H3029       H  0.66579574  0.49334135  0.58427132     0.30000
H3030       H  0.70734244  0.06190663  0.66838524     0.30200
Zr3031     Zr  0.69177842  0.17181135  0.53494153     2.17500
O3032       O  0.73620561  0.16586802  0.52822367    -0.52100
O3033       O  0.67490398  0.13714941  0.50978908    -0.75300
O3034       O  0.69539754  0.13552374  0.55473011    -0.82100
O3035       O  0.72408135  0.24583651  0.50956963    -0.83800
O3036       O  0.68186951  0.14452050  0.58121105    -0.79500
O3037       O  0.73733620  0.21295241  0.52196967    -0.91100
O3038       O  0.62399885  0.11930686  0.50525783    -0.77100
O3039       O  0.64239636  0.13711270  0.54650340    -0.86600
O3040       O  0.65735635  0.17849372  0.51618987    -0.86200
O3041       O  0.69289923  0.18931817  0.56413434    -0.73000
O3042       O  0.70318470  0.22394241  0.53765499    -0.85100
Zr3043     Zr  0.61864400  0.21065223  0.55941056     2.26400
Zr3044     Zr  0.64155143  0.15530070  0.57534128     2.06300
Zr3045     Zr  0.66927590  0.23081160  0.51882053     2.10000
Zr3046     Zr  0.60785627  0.14259803  0.52769873     1.78800
O3047       O  0.69295764  0.28569225  0.51381105    -0.93900
O3048       O  0.58366906  0.08808444  0.53435425    -0.41700
O3049       O  0.61981846  0.19482867  0.53016447    -0.78400
O3050       O  0.60453891  0.15778922  0.55710687    -0.97100
O3051       O  0.65389158  0.20718816  0.57828180    -0.90400
O3052       O  0.66809307  0.24621049  0.54787903    -0.93200
C3053       C  0.64982586  0.12138317  0.50114097     1.00500
C3054       C  0.74382330  0.23656474  0.51284077     1.13500
C3055       C  0.69195528  0.13136811  0.57118027     1.04300
O3056       O  0.59637085  0.10428060  0.57351582    -0.95400
O3057       O  0.61854363  0.16895101  0.59945651    -0.91100
O3058       O  0.59841604  0.19705517  0.58877386    -0.84300
C3059       C  0.60266634  0.18254075  0.60111671     1.10900
O3060       O  0.75565529  0.25550494  0.57463769    -0.97300
Zr3061     Zr  0.70304561  0.24064952  0.56648439     1.88900
O3062       O  0.64077521  0.26075346  0.57262886    -0.74000
O3063       O  0.64092289  0.12821755  0.60165340    -0.53300
O3064       O  0.70739781  0.23223749  0.59713278    -0.97900
O3065       O  0.74511132  0.28985232  0.55684094    -0.55100
O3066       O  0.69070386  0.27642034  0.57945463    -0.74500
C3067       C  0.66704091  0.27966903  0.57918611     0.97800
O3068       O  0.56438410  0.19623178  0.55957478    -0.63300
O3069       O  0.66166689  0.22368327  0.48759396    -0.58100
O3070       O  0.59838019  0.23288750  0.54039376    -0.94800
O3071       O  0.62474298  0.24164423  0.51507662    -0.93200
O3072       O  0.58179217  0.14512437  0.50174893    -0.93600
O3073       O  0.55236025  0.12255063  0.52898324    -0.92400
C3074       C  0.60273096  0.24105038  0.52460411     1.16700
H3075       H  0.65980532  0.17563134  0.50403543     0.32600
H3076       H  0.58401746  0.14522251  0.56161560     0.43500
H3077       H  0.67213783  0.26709018  0.54732338     0.37000
H3078       H  0.71050532  0.19066861  0.57008528     0.33500
H3079       H  0.56669181  0.08390036  0.54246742     0.25300
H3080       H  0.61947404  0.11808335  0.60598994     0.31200
H3081       H  0.71609427  0.25277257  0.60257962     0.37100
H3082       H  0.59711296  0.16440131  0.49613063     0.31600
H3083       H  0.65124705  0.23530175  0.48439773     0.30500
H3084       H  0.70789659  0.29546938  0.52339010     0.32100
H3085       H  0.74248025  0.30563428  0.56309385     0.31100
H3086       H  0.54988344  0.13784112  0.53588503     0.35100
H3087       H  0.55318788  0.17415639  0.56241637     0.27800
H3088       H  0.72811382  0.14352570  0.52719520     0.32100
H3089       H  0.75710124  0.23665740  0.57348277     0.34900
H3090       H  0.68260662  0.23570425  0.48263887     0.27500
H3091       H  0.56163067  0.20673591  0.56974385     0.40400
H3092       H  0.58173597  0.10441697  0.58211856     0.30500
H3093       H  0.57315598  0.07745191  0.52349535     0.38100
H3094       H  0.74014217  0.29150733  0.54463602     0.29900
H3095       H  0.65289100  0.14445322  0.61033147     0.30000
H3096       H  0.74893543  0.17215601  0.53890498     0.30200
C3097       C  0.71099137  0.09147256  0.60499683    -0.02600
C3098       C  0.68017744  0.06946002  0.60877810     0.07100
C3099       C  0.65631016  0.06753989  0.59824117    -0.02700
C3100       C  0.66337155  0.08131073  0.58212848    -0.02700
C3101       C  0.69295576  0.10605909  0.57934765     0.07200
C3102       C  0.71691943  0.11169016  0.59103064    -0.02900
Br3103     Br  0.75687718  0.14735075  0.58808219    -0.01500
Br3104     Br  0.74439387  0.09399578  0.61860068    -0.01600
Br3105     Br  0.63159804  0.06920903  0.56476944    -0.01500
Br3106     Br  0.61390549  0.04585000  0.60586920    -0.01500
C3107       C  0.66852884  0.33505181  0.61173744    -0.02600
C3108       C  0.66686868  0.35625131  0.60060979     0.07100
C3109       C  0.66954638  0.35461131  0.58259359    -0.02700
C3110       C  0.67210481  0.33039338  0.57554085    -0.02700
C3111       C  0.67041237  0.30748533  0.58656973     0.07200
C3112       C  0.66989146  0.31024562  0.60461915    -0.02900
Br3113     Br  0.66933783  0.27924985  0.61942788    -0.01500
Br3114     Br  0.66877999  0.33972744  0.63661302    -0.01600
Br3115     Br  0.67792122  0.32857583  0.55093077    -0.01500
Br3116     Br  0.66716009  0.38393808  0.56762501    -0.01500
C3117       C  0.66574343  0.08871673  0.48409110    -0.02600
C3118       C  0.65158760  0.10697223  0.48462012     0.07100
C3119       C  0.64127368  0.11349488  0.46896904    -0.02700
C3120       C  0.64536746  0.10216595  0.45307424    -0.02700
C3121       C  0.66144294  0.08588402  0.45247422     0.07200
C3122       C  0.67133278  0.07884261  0.46802781    -0.02900
Br3123     Br  0.69363169  0.05674619  0.46733267    -0.01500
Br3124     Br  0.67629994  0.07614205  0.50540613    -0.01600
Br3125     Br  0.62774221  0.10778551  0.43207970    -0.01500
Br3126     Br  0.62358887  0.13990445  0.46872997    -0.01500
C3127       C  0.58510796  0.39884952  0.53720043    -0.02600
C3128       C  0.55338754  0.37800606  0.53522803     0.07100
C3129       C  0.53477071  0.36628352  0.55017837    -0.02700
C3130       C  0.54766496  0.37511934  0.56685331    -0.02700
C3131       C  0.57913468  0.39671348  0.56886299     0.07200
C3132       C  0.59784391  0.40861460  0.55395398    -0.02900
Br3133     Br  0.64085140  0.43879849  0.55642889    -0.01500
Br3134     Br  0.61062696  0.41519506  0.51694272    -0.01600
Br3135     Br  0.52150108  0.35904362  0.58695627    -0.01500
Br3136     Br  0.99101349  0.34942803  0.54598516    -0.01500
C3137       C  0.62426592  0.39199373  0.44153561    -0.02600
C3138       C  0.59596678  0.36847943  0.43513050     0.07100
C3139       C  0.59184395  0.36369789  0.41703208    -0.02700
C3140       C  0.61134946  0.38713509  0.40574511    -0.02700
C3141       C  0.63604131  0.41398815  0.41264180     0.07200
C3142       C  0.64460356  0.41481207  0.43012287    -0.02900
Br3143     Br  0.68256058  0.44894623  0.43854756    -0.01500
Br3144     Br  0.63304495  0.39543665  0.46598521    -0.01600
Br3145     Br  0.60108898  0.38480959  0.38154715    -0.01500
Br3146     Br  0.55642225  0.32737032  0.40802544    -0.01500
C3147       C  0.83548559  0.19142189  0.44478901    -0.02600
C3148       C  0.85654274  0.21085413  0.43218139     0.07100
C3149       C  0.85008018  0.20451140  0.41451563    -0.02700
C3150       C  0.82340481  0.17769016  0.40940308    -0.02700
C3151       C  0.80164107  0.15896919  0.42196346     0.07200
C3152       C  0.80724766  0.16637556  0.43961101    -0.02900
Br3153     Br  0.77637345  0.14195972  0.45654675    -0.01500
Br3154     Br  0.84589546  0.19745366  0.46906485    -0.01600
Br3155     Br  0.81842397  0.16606028  0.38530952    -0.01500
Br3156     Br  0.87809923  0.23244676  0.39743738    -0.01500
C3157       C  0.53962390  0.26345903  0.52487834    -0.02600
C3158       C  0.52229789  0.24873814  0.50989726     0.07100
C3159       C  0.53292179  0.23270012  0.49923544    -0.02700
C3160       C  0.56048240  0.23226376  0.50309206    -0.02700
C3161       C  0.57835553  0.24780591  0.51778129     0.07200
C3162       C  0.56750296  0.26355291  0.52859759    -0.02900
Br3163     Br  0.59175496  0.28708209  0.54830556    -0.01500
Br3164     Br  0.52583372  0.28474194  0.54006002    -0.01600
Br3165     Br  0.57334469  0.20975507  0.48824039    -0.01500
Br3166     Br  0.50916368  0.21057035  0.47914045    -0.01500
C3167       C  0.83138783  0.27057326  0.51309374    -0.02600
C3168       C  0.83763415  0.26657162  0.49566728     0.07100
C3169       C  0.81284355  0.25670511  0.48347433    -0.02700
C3170       C  0.78269337  0.24922755  0.48885324    -0.02700
C3171       C  0.77655643  0.25282200  0.50623135     0.07200
C3172       C  0.80146345  0.26430931  0.51814747    -0.02900
Br3173     Br  0.79458183  0.27171931  0.54169437    -0.01500
Br3174     Br  0.86374171  0.28526603  0.53027807    -0.01600
Br3175     Br  0.74872605  0.23138526  0.47265624    -0.01500
Br3176     Br  0.81859272  0.25127320  0.45919540    -0.01500
C3177       C  0.58977322  0.18265490  0.65009469    -0.02600
C3178       C  0.55757706  0.17004610  0.65080140     0.07100
C3179       C  0.54077739  0.16425350  0.63520463    -0.02700
C3180       C  0.55572439  0.16970733  0.61907034    -0.02700
C3181       C  0.58774619  0.18058103  0.61822673     0.07200
C3182       C  0.60476415  0.18754213  0.63389100    -0.02900
Br3183     Br  0.64865007  0.20353592  0.63331846    -0.01500
Br3184     Br  0.61296181  0.19133694  0.67134437    -0.01600
Br3185     Br  0.53116418  0.15940944  0.59825516    -0.01500
Br3186     Br  0.98980895  0.14039457  0.63686607    -0.01500
C3187       C  0.53659351  0.26292538  0.66471736    -0.02600
C3188       C  0.51974065  0.25952845  0.67999270     0.07100
C3189       C  0.52922324  0.28587182  0.69065850    -0.02700
C3190       C  0.55491605  0.31478299  0.68617075    -0.02700
C3191       C  0.57228670  0.31806081  0.67103153     0.07200
C3192       C  0.56282272  0.29146817  0.66049902    -0.02900
Br3193     Br  0.58679514  0.29326919  0.64047357    -0.01500
Br3194     Br  0.52427176  0.22798918  0.64966816    -0.01600
Br3195     Br  0.56530643  0.35004028  0.70055999    -0.01500
Br3196     Br  0.50608468  0.28242320  0.71139647    -0.01500
C3197       C  0.81597431  0.02609532  0.68414460    -0.02600
C3198       C  0.82607318  0.05719435  0.68836421     0.07100
C3199       C  0.80359030  0.06578685  0.69105030    -0.02700
C3200       C  0.77176057  0.04371373  0.68988252    -0.02700
C3201       C  0.76138269  0.01272230  0.68476948     0.07200
C3202       C  0.78408245  0.00407520  0.68241743    -0.02900
Br3203     Br  0.77334575  0.46650103  0.67562703    -0.01500
Br3204     Br  0.84653262  0.01418864  0.67966066    -0.01600
Br3205     Br  0.74233105  0.05609069  0.69645777    -0.01500
Br3206     Br  0.81657173  0.10802138  0.69663840    -0.01500
C3207       C  0.65533150  0.06684305  0.72285455    -0.02600
C3208       C  0.65006017  0.04984396  0.73823268     0.07100
C3209       C  0.63628099  0.01770576  0.73726889    -0.02700
C3210       C  0.62863983  0.00268842  0.72106031    -0.02700
C3211       C  0.63424728  0.01971995  0.70562325     0.07200
C3212       C  0.64692403  0.05176510  0.70666900    -0.02900
Br3213     Br  0.65173639  0.07489963  0.68589965    -0.01500
Br3214     Br  0.67603325  0.11106621  0.72373828    -0.01600
Br3215     Br  0.61219339  0.95887916  0.72029924    -0.01500
Br3216     Br  0.62708648  0.99397394  0.75819956    -0.01500
C3217       C  0.60888831  0.20493268  0.78104076    -0.02600
C3218       C  0.63242488  0.19981772  0.77504967     0.07100
C3219       C  0.64106615  0.20481925  0.75744407    -0.02700
C3220       C  0.62099369  0.20608415  0.74526446    -0.02700
C3221       C  0.59351281  0.20414529  0.75106053     0.07200
C3222       C  0.58956521  0.20765567  0.76887610    -0.02900
Br3223     Br  0.55532390  0.21215594  0.77640799    -0.01500
Br3224     Br  0.60069248  0.20402474  0.80548664    -0.01600
Br3225     Br  0.62836882  0.20503121  0.72082713    -0.01500
Br3226     Br  0.67864052  0.20648339  0.74998949    -0.01500
C3227       C  0.81605247  0.09197617  0.75047038    -0.02600
C3228       C  0.84544971  0.11318601  0.75741365     0.07100
C3229       C  0.84767132  0.13444908  0.77016899    -0.02700
C3230       C  0.82216558  0.13783731  0.77385423    -0.02700
C3231       C  0.79386358  0.11926696  0.76531872     0.07200
C3232       C  0.79056381  0.09568214  0.75409617    -0.02900
Br3233     Br  0.75107353  0.06883995  0.74340505    -0.01500
Br3234     Br  0.80908740  0.05674540  0.73676786    -0.01600
Br3235     Br  0.82619956  0.16702062  0.79148101    -0.01500
Br3236     Br  0.88471075  0.15716316  0.78401839    -0.01500
C3237       C  0.80780945  0.40601934  0.09592520    -0.02600
C3238       C  0.82799460  0.41652067  0.11014959     0.07100
C3239       C  0.85388532  0.41302052  0.11013605    -0.02700
C3240       C  0.86538056  0.41016805  0.09422642    -0.02700
C3241       C  0.84528664  0.39802219  0.07972323     0.07200
C3242       C  0.81559127  0.39517504  0.08092652    -0.02900
Br3243     Br  0.78738402  0.38158147  0.06161856    -0.01500
Br3244     Br  0.77143371  0.40993966  0.09682116    -0.01600
Br3245     Br  0.90973686  0.43037101  0.09242205    -0.01500
Br3246     Br  0.87864062  0.42262029  0.13093833    -0.01500
C3247       C  0.85133577  0.17469638  0.08119723    -0.02600
C3248       C  0.87225540  0.20389967  0.08788071     0.07100
C3249       C  0.89543418  0.20757269  0.09953783    -0.02700
C3250       C  0.89786300  0.18210820  0.10447238    -0.02700
C3251       C  0.87520530  0.15223484  0.09894783     0.07200
C3252       C  0.85226673  0.14881272  0.08698164    -0.02900
Br3253     Br  0.82355083  0.10928619  0.07700094    -0.01500
Br3254     Br  0.82324849  0.17029757  0.06279183    -0.01600
Br3255     Br  0.93333784  0.18979185  0.11827071    -0.01500
Br3256     Br  0.92377070  0.24767860  0.10904329    -0.01500
C3257       C  0.99376811  0.35414558  0.13364394    -0.02600
C3258       C  0.97443083  0.34491130  0.14845038     0.07100
C3259       C  0.94215970  0.32787915  0.14620327    -0.02700
C3260       C  0.92946293  0.32266483  0.12939761    -0.02700
C3261       C  0.94896106  0.33245100  0.11478034     0.07200
C3262       C  0.98097156  0.34709062  0.11692606    -0.02900
Br3263     Br  0.50896369  0.36353501  0.09839104    -0.01500
Br3264     Br  0.53904083  0.37172632  0.13727353    -0.01600
Br3265     Br  0.88533235  0.30194875  0.12634558    -0.01500
Br3266     Br  0.91526298  0.31180563  0.16598301    -0.01500
C3267       C  0.97843911  0.18303607  0.17518206    -0.02600
C3268       C  0.94882441  0.17687537  0.16963267     0.07100
C3269       C  0.94535532  0.20208441  0.16506175    -0.02700
C3270       C  0.97102996  0.23223292  0.16504675    -0.02700
C3271       C  0.99970795  0.23876869  0.17219997     0.07200
C3272       C  0.00304533  0.21370177  0.17741929    -0.02900
Br3273     Br  0.52377111  0.21935812  0.20385297    -0.01500
Br3274     Br  0.98537868  0.14924827  0.17948316    -0.01600
Br3275     Br  0.96734216  0.26504521  0.15472909    -0.01500
Br3276     Br  0.90490589  0.19537833  0.15951679    -0.01500
C3277       C  0.71489992  0.45305746  0.20031333    -0.02600
C3278       C  0.69133397  0.43641092  0.18767505     0.07100
C3279       C  0.69785357  0.44627395  0.17029628    -0.02700
C3280       C  0.72737721  0.47082294  0.16568896    -0.02700
C3281       C  0.75039210  0.48756627  0.17837439     0.07200
C3282       C  0.74315284  0.47923743  0.19576713    -0.02900
Br3283     Br  0.77273066  0.50363172  0.21339326    -0.01500
Br3284     Br  0.71035687  0.43935542  0.22405206    -0.01600
Br3285     Br  0.73674036  0.48126495  0.14165450    -0.01500
Br3286     Br  0.66641974  0.42714213  0.15271165    -0.01500
C3287       C  0.60517976  0.42943466  0.31577237    -0.02600
C3288       C  0.62722062  0.46079356  0.31710686     0.07100
C3289       C  0.63832058  0.47861157  0.30197918    -0.02700
C3290       C  0.62638382  0.46561675  0.28569704    -0.02700
C3291       C  0.60402344  0.43432328  0.28430300     0.07200
C3292       C  0.59354575  0.41616471  0.29939699    -0.02900
Br3293     Br  0.56356168  0.37297124  0.29775803    -0.01500
Br3294     Br  0.59041464  0.40485477  0.33633228    -0.01600
Br3295     Br  0.63906801  0.49162614  0.26555329    -0.01500
Br3296     Br  0.66943680  0.02396257  0.30217395    -0.01500
C3297       C  0.91966278  0.36477310  0.39754535    -0.02600
C3298       C  0.93436168  0.34719012  0.39825703     0.07100
C3299       C  0.94005496  0.33589201  0.38269117    -0.02700
C3300       C  0.93043335  0.34172681  0.36662602    -0.02700
C3301       C  0.91344897  0.35723292  0.36616106     0.07200
C3302       C  0.90783446  0.36836795  0.38181534    -0.02900
Br3303     Br  0.88145214  0.38618578  0.38237939    -0.01500
Br3304     Br  0.91745295  0.38588189  0.41794567    -0.01600
Br3305     Br  0.94146502  0.32956021  0.34528820    -0.01500
Br3306     Br  0.95996327  0.31150771  0.38340902    -0.01500
C3307       C  0.88920747  0.45717957  0.21043028    -0.02600
C3308       C  0.86572665  0.46120007  0.20308986     0.07100
C3309       C  0.83927996  0.45417156  0.21306692    -0.02700
C3310       C  0.83660529  0.44365854  0.23019291    -0.02700
C3311       C  0.86028211  0.43983371  0.23761936     0.07200
C3312       C  0.88723828  0.44805927  0.22781245    -0.02900
Br3313     Br  0.92302048  0.44986611  0.23843530    -0.01500
Br3314     Br  0.92283520  0.46138175  0.19616733    -0.01600
Br3315     Br  0.79997640  0.43459479  0.24314256    -0.01500
Br3316     Br  0.80603389  0.45858287  0.20358073    -0.01500
C3317       C  0.90008341  0.29215771  0.23964278    -0.02600
C3318       C  0.92661772  0.29321749  0.24632091     0.07100
C3319       C  0.92740628  0.28504231  0.26369053    -0.02700
C3320       C  0.90492267  0.28312109  0.27528969    -0.02700
C3321       C  0.88196922  0.28902853  0.26916713     0.07200
C3322       C  0.87666166  0.28803532  0.25111508    -0.02900
Br3323     Br  0.83966538  0.28616486  0.24240980    -0.01500
Br3324     Br  0.89874059  0.30290501  0.21580379    -0.01600
Br3325     Br  0.90817418  0.27665470  0.29956499    -0.01500
Br3326     Br  0.96171947  0.28118024  0.27198664    -0.01500
C3327       C  0.69604305  0.36369782  0.28125825    -0.02600
C3328       C  0.71783673  0.36393821  0.26949661     0.07100
C3329       C  0.71221804  0.36184163  0.25158015    -0.02700
C3330       C  0.68573585  0.36136644  0.24533025    -0.02700
C3331       C  0.66482915  0.36284260  0.25703129     0.07200
C3332       C  0.66957661  0.36342946  0.27498060    -0.02900
Br3333     Br  0.63964571  0.36360228  0.29078159    -0.01500
Br3334     Br  0.70111307  0.36139791  0.30587360    -0.01600
Br3335     Br  0.67743956  0.35692856  0.22074934    -0.01500
Br3336     Br  0.73991180  0.35788631  0.23566144    -0.01500
C3337       C  0.76704967  0.23713458  0.36526930    -0.02600
C3338       C  0.76241865  0.24348287  0.34813137     0.07100
C3339       C  0.75076553  0.21876960  0.33601520    -0.02700
C3340       C  0.74567709  0.18918531  0.34057208    -0.02700
C3341       C  0.75142551  0.18303220  0.35758755     0.07200
C3342       C  0.76136201  0.20740433  0.37002335    -0.02900
Br3343     Br  0.76885700  0.20119384  0.39378503    -0.01500
Br3344     Br  0.78282868  0.27002044  0.38209304    -0.01600
Br3345     Br  0.72953716  0.15675867  0.32347936    -0.01500
Br3346     Br  0.74186757  0.22573293  0.31275438    -0.01500
C3347       C  0.78849880  0.46099563  0.35133220    -0.02600
C3348       C  0.77822601  0.44592107  0.33519012     0.07100
C3349       C  0.76472714  0.45777185  0.32343120    -0.02700
C3350       C  0.75987259  0.48239789  0.32816787    -0.02700
C3351       C  0.76928249  0.49680791  0.34448766     0.07200
C3352       C  0.78399639  0.48595931  0.35593626    -0.02900
Br3353     Br  0.79756467  0.50509675  0.37837959    -0.01500
Br3354     Br  0.81038558  0.44856796  0.36683058    -0.01600
Br3355     Br  0.73729412  0.49446838  0.31286360    -0.01500
Br3356     Br  0.75216854  0.44041561  0.30049993    -0.01500
C3357       C  0.89574171  0.05791973  0.79380312    -0.02600
C3358       C  0.91954506  0.05644365  0.78473306     0.07100
C3359       C  0.93618449  0.04446713  0.79334929    -0.02700
C3360       C  0.92907296  0.03430399  0.81062647    -0.02700
C3361       C  0.90343219  0.03324768  0.81909459     0.07200
C3362       C  0.88706305  0.04562555  0.81057944    -0.02900
Br3363     Br  0.85158065  0.04492899  0.82113674    -0.01500
Br3364     Br  0.87573312  0.07839067  0.78393237    -0.01600
Br3365     Br  0.95596140  0.02362960  0.82296296    -0.01500
Br3366     Br  0.96749365  0.03972026  0.78128236    -0.01500
C3367       C  0.74432141  0.00976622  0.85306580    -0.02600
C3368       C  0.75604533  0.99718122  0.84066006     0.07100
C3369       C  0.76075702  0.00883045  0.82372549    -0.02700
C3370       C  0.75703081  0.03434111  0.81971738    -0.02700
C3371       C  0.74614383  0.04765546  0.83226471     0.07200
C3372       C  0.73894153  0.03428020  0.84889375    -0.02900
Br3373     Br  0.72102142  0.04888850  0.86594270    -0.01500
Br3374     Br  0.73506019  0.99276689  0.87597494    -0.01600
Br3375     Br  0.76944360  0.05240977  0.79705126    -0.01500
Br3376     Br  0.77272440  0.98973657  0.80597338    -0.01500
C3377       C  0.75005543  0.25689386  0.85753349    -0.02600
C3378       C  0.76513217  0.25142125  0.84367863     0.07100
C3379       C  0.78432799  0.27667536  0.83294030    -0.02700
C3380       C  0.78809119  0.30636805  0.83593903    -0.02700
C3381       C  0.77154330  0.31125938  0.84925185     0.07200
C3382       C  0.75234880  0.28595447  0.85992338    -0.02900
Br3383     Br  0.72796575  0.29086001  0.87767419    -0.01500
Br3384     Br  0.72478054  0.22356745  0.87289303    -0.01600
Br3385     Br  0.81666998  0.34067091  0.82213653    -0.01500
Br3386     Br  0.80557722  0.27047052  0.81397821    -0.01500
C3387       C  0.84679831  0.40518500  0.96254962    -0.02600
C3388       C  0.85683127  0.39703579  0.94738400     0.07100
C3389       C  0.87502923  0.38309090  0.94864867    -0.02700
C3390       C  0.88229166  0.37625326  0.96500376    -0.02700
C3391       C  0.87380209  0.38593145  0.98033144     0.07200
C3392       C  0.85623054  0.40078929  0.97894351    -0.02900
Br3393     Br  0.84579614  0.41616849  0.99932495    -0.01500
Br3394     Br  0.81890779  0.42115550  0.96078693    -0.01600
Br3395     Br  0.90108143  0.35082544  0.96587945    -0.01500
Br3396     Br  0.89118798  0.37451926  0.92795233    -0.01500
C3397       C  0.92963001  0.08613131  0.05576808    -0.02600
C3398       C  0.94762407  0.09313459  0.07098787     0.07100
C3399       C  0.97994811  0.11032509  0.06988055    -0.02700
C3400       C  0.99424263  0.12075198  0.05371652    -0.02700
C3401       C  0.97631382  0.11294811  0.03839615     0.07200
C3402       C  0.94398384  0.09574567  0.03950089    -0.02900
Br3403     Br  0.91950319  0.08369228  0.01863655    -0.01500
Br3404     Br  0.88524817  0.06371147  0.05715143    -0.01600
Br3405     Br  0.53485862  0.16130342  0.05302153    -0.01500
Br3406     Br  0.00490106  0.11767149  0.09033151    -0.01500
C3407       C  0.62744477  0.14128830  0.90440253    -0.02600
C3408       C  0.60386570  0.14881978  0.90583091     0.07100
C3409       C  0.59111233  0.15358875  0.89053297    -0.02700
C3410       C  0.60184818  0.15075876  0.87409657    -0.02700
C3411       C  0.62519554  0.14308724  0.87281877     0.07200
C3412       C  0.63813784  0.13864556  0.88799087    -0.02900
Br3413     Br  0.67099627  0.12914964  0.88637849    -0.01500
Br3414     Br  0.64374309  0.13207532  0.92474481    -0.01600
Br3415     Br  0.58391931  0.15622243  0.85322993    -0.01500
Br3416     Br  0.55919119  0.16442869  0.89172661    -0.01500
C3417       C  0.90843684  0.09776320  0.91123448    -0.02600
C3418       C  0.88585032  0.06902834  0.91745605     0.07100
C3419       C  0.88020207  0.06482356  0.93546299    -0.02700
C3420       C  0.90213420  0.08574021  0.94712352    -0.02700
C3421       C  0.92779504  0.11213825  0.94068049     0.07200
C3422       C  0.92870893  0.11989175  0.92308779    -0.02900
Br3423     Br  0.96046670  0.15940562  0.91516669    -0.01500
Br3424     Br  0.91497939  0.10523876  0.88670518    -0.01600
Br3425     Br  0.89994743  0.07531195  0.97123816    -0.01500
Br3426     Br  0.84459943  0.02833039  0.94402600    -0.01500
C3427       C  0.66627044  0.29288070  0.91484170    -0.02600
C3428       C  0.66970442  0.27522293  0.92796545     0.07100
C3429       C  0.69988929  0.28362063  0.93377489    -0.02700
C3430       C  0.72523900  0.31168091  0.92862477    -0.02700
C3431       C  0.72122227  0.33032202  0.91660421     0.07200
C3432       C  0.69194596  0.32018648  0.90918042    -0.02900
Br3433     Br  0.68709620  0.34275594  0.89045549    -0.01500
Br3434     Br  0.62696490  0.27904675  0.90346828    -0.01600
Br3435     Br  0.76533759  0.32560631  0.93895006    -0.01500
Br3436     Br  0.70802644  0.25736000  0.94842548    -0.01500
C3437       C  0.97776785  0.22255498  0.02416075    -0.02600
C3438       C  0.99936787  0.24057675  0.01138022     0.07100
C3439       C  0.99321690  0.26063008  0.00152270    -0.02700
C3440       C  0.96644222  0.26292563  0.00447953    -0.02700
C3441       C  0.94463959  0.24459440  0.01708180     0.07200
C3442       C  0.95064595  0.22435754  0.02689280    -0.02900
Br3443     Br  0.92119170  0.19871414  0.04415553    -0.01500
Br3444     Br  0.98472747  0.19425531  0.03748848    -0.01600
Br3445     Br  0.96055228  0.29265543  0.99190018    -0.01500
Br3446     Br  0.02169779  0.28492480  0.98361840    -0.01500
C3447       C  0.74766643  0.27792865  0.99779524    -0.02600
C3448       C  0.75615756  0.25713665  0.00494702     0.07100
C3449       C  0.73233997  0.22794382  0.00998873    -0.02700
C3450       C  0.70091975  0.21981385  0.00797319    -0.02700
C3451       C  0.69266676  0.24124507  0.00171688     0.07200
C3452       C  0.71639321  0.27028487  0.99656295    -0.02900
Br3453     Br  0.70565585  0.29928687  0.98715536    -0.01500
Br3454     Br  0.77907539  0.31718557  0.98919570    -0.01600
Br3455     Br  0.66889909  0.17902320  0.01383125    -0.01500
Br3456     Br  0.74281120  0.19955872  0.02032419    -0.01500
Zr3457     Zr  0.50438716  0.66644846  0.98402337     2.17500
O3458       O  0.95614933  0.66267404  0.99177903    -0.52100
O3459       O  0.98592277  0.63910271  0.01165448    -0.75300
O3460       O  0.96317847  0.64119172  0.96397814    -0.82100
O3461       O  0.54774730  0.73681089  0.00909098    -0.83800
O3462       O  0.98108248  0.62398889  0.94212864    -0.79500
O3463       O  0.01279454  0.71725349  0.99079830    -0.91100
O3464       O  0.51544142  0.62155998  0.02147588    -0.77100
O3465       O  0.51285440  0.62461237  0.97902188    -0.86600
O3466       O  0.54432938  0.67498953  0.00414688    -0.86200
O3467       O  0.52161910  0.67200346  0.95433754    -0.73000
O3468       O  0.54872231  0.71577562  0.97803542    -0.85100
Zr3469     Zr  0.61225883  0.68480335  0.96316289     2.26400
Zr3470     Zr  0.53111195  0.63004285  0.94987511     2.06300
Zr3471     Zr  0.58813670  0.72375683  0.99832387     2.10000
Zr3472     Zr  0.55275448  0.63284968  0.99892618     1.78800
O3473       O  0.61599031  0.77939155  0.99595496    -0.93900
O3474       O  0.51638772  0.57786436  0.99782243    -0.41700
O3475       O  0.59662653  0.68153887  0.99281245    -0.78400
O3476       O  0.57001604  0.63518184  0.96952507    -0.97100
O3477       O  0.57377279  0.67913695  0.94345360    -0.90400
O3478       O  0.60502533  0.72761975  0.96908112    -0.93200
C3479       C  0.99320885  0.62365961  0.02200706     1.00500
C3480       C  0.52245680  0.73271978  0.00179231     1.13500
C3481       C  0.96013575  0.62768303  0.94936273     1.04300
O3482       O  0.52077214  0.57953912  0.95910611    -0.95400
O3483       O  0.56570214  0.63667723  0.92583898    -0.91100
O3484       O  0.61512380  0.66462574  0.93510731    -0.84300
C3485       C  0.59493091  0.64924763  0.92345934     1.10900
O3486       O  0.52869316  0.73665898  0.94149340    -0.97300
Zr3487     Zr  0.56628541  0.72119868  0.94897721     1.88900
O3488       O  0.64479906  0.72596011  0.94411465    -0.74000
O3489       O  0.50998155  0.59721145  0.92428844    -0.53300
O3490       O  0.55242212  0.71347305  0.91842108    -0.97900
O3491       O  0.58396995  0.77529783  0.95430015    -0.55100
O3492       O  0.61719176  0.74798015  0.93563702    -0.74500
C3493       C  0.64208174  0.74642866  0.93589808     0.97800
O3494       O  0.64252000  0.65911014  0.96553703    -0.63300
O3495       O  0.59513319  0.72838642  0.02961809    -0.58100
O3496       O  0.65638719  0.71206177  0.98114265    -0.94800
O3497       O  0.64281651  0.73385321  0.00299921    -0.93200
O3498       O  0.58232543  0.64455424  0.02572203    -0.93600
O3499       O  0.58170198  0.60596422  0.00167201    -0.92400
C3500       C  0.66219601  0.72745108  0.99518668     1.16700
H3501       H  0.53965950  0.67709984  0.01601082     0.32600
H3502       H  0.57574865  0.61963742  0.96738498     0.43500
H3503       H  0.62381817  0.74704295  0.96793305     0.37000
H3504       H  0.50691487  0.67201854  0.94632997     0.33500
H3505       H  0.52048913  0.56957345  0.00847989     0.25300
H3506       H  0.49057331  0.57902911  0.92803723     0.31200
H3507       H  0.56377824  0.73418650  0.91330556     0.37100
H3508       H  0.57069517  0.62621396  0.03305368     0.31600
H3509       H  0.60145706  0.71320172  0.03262811     0.30500
H3510       H  0.59983114  0.78476778  0.99354457     0.32100
H3511       H  0.58632803  0.78430586  0.94264036     0.31100
H3512       H  0.60346138  0.62196148  0.99991139     0.35100
H3513       H  0.64241858  0.65476520  0.97802178     0.27800
H3514       H  0.95823436  0.67011424  0.00386434     0.32100
H3515       H  0.51257545  0.72726818  0.95050490     0.34900
H3516       H  0.61389531  0.74854197  0.03145987     0.27500
H3517       H  0.62957796  0.63861493  0.96023749     0.40400
H3518       H  0.49814039  0.56760398  0.96065148     0.30500
H3519       H  0.49581075  0.57560827  0.99973784     0.38100
H3520       H  0.60535849  0.78397715  0.95860256     0.29900
H3521       H  0.50348426  0.60833981  0.91634793     0.30000
H3522       H  0.95451732  0.67830176  0.98482369     0.30200
Zr3523     Zr  0.84290369  0.50095715  0.86917692     2.17500
O3524       O  0.84396998  0.54895695  0.86243960    -0.52100
O3525       O  0.87992765  0.52530123  0.84511680    -0.75300
O3526       O  0.86634920  0.54116057  0.89138174    -0.82100
O3527       O  0.76545534  0.95303069  0.84337741    -0.83800
O3528       O  0.88190515  0.52241504  0.91329931    -0.79500
O3529       O  0.80065976  0.50207702  0.85571159    -0.91100
O3530       O  0.89885158  0.49492087  0.83682761    -0.77100
O3531       O  0.87998979  0.98954215  0.87749952    -0.86600
O3532       O  0.83509950  0.96069767  0.84932402    -0.86200
O3533       O  0.82590280  0.97893212  0.89895993    -0.73000
O3534       O  0.78848165  0.95413208  0.87244498    -0.85100
Zr3535     Zr  0.81559866  0.88909900  0.89014890     2.26400
Zr3536     Zr  0.86707817  0.96931201  0.90621138     2.06300
Zr3537     Zr  0.78490696  0.91648676  0.85194947     2.10000
Zr3538     Zr  0.87541012  0.95068171  0.85772476     1.78800
O3539       O  0.72967528  0.88529006  0.84673740    -0.93900
O3540       O  0.93059774  0.98054501  0.86342006    -0.41700
O3541       O  0.82535573  0.90678895  0.86074054    -0.78400
O3542       O  0.86637751  0.93182606  0.88698831    -0.97100
O3543       O  0.81696802  0.92581985  0.90978488    -0.90400
O3544       O  0.77474610  0.89729800  0.88080337    -0.93200
C3545       C  0.89592514  0.51856123  0.83474684     1.00500
C3546       C  0.77347198  0.98159583  0.84683403     1.13500
C3547       C  0.87842816  0.54343385  0.90633367     1.04300
O3548       O  0.92113507  0.98548088  0.90128604    -0.95400
O3549       O  0.86094080  0.93413030  0.92909837    -0.91100
O3550       O  0.83314000  0.88521483  0.91917112    -0.84300
C3551       C  0.84866023  0.90512268  0.93102596     1.10900
O3552       O  0.76061829  0.97065163  0.90992539    -0.97300
Zr3553     Zr  0.77610797  0.93363316  0.90105105     1.88900
O3554       O  0.76875482  0.85497021  0.90506694    -0.74000
O3555       O  0.89056779  0.98685488  0.93481284    -0.53300
O3556       O  0.77597703  0.93822292  0.93246110    -0.97900
O3557       O  0.72453004  0.91649337  0.88977551    -0.55100
O3558       O  0.74545521  0.88221434  0.91277525    -0.74500
C3559       C  0.74679193  0.85738428  0.91196972     0.97800
O3560       O  0.83939559  0.85718517  0.88734997    -0.63300
O3561       O  0.79486742  0.91684935  0.82098932    -0.58100
O3562       O  0.78950024  0.84610455  0.87145400    -0.94800
O3563       O  0.77360233  0.86144613  0.84769644    -0.93200
O3564       O  0.87349330  0.92865511  0.82927509    -0.93600
O3565       O  0.89838584  0.91789107  0.85568998    -0.92400
C3566       C  0.77715142  0.84123356  0.85650657     1.16700
H3567       H  0.83664892  0.96762778  0.83754626     0.32600
H3568       H  0.88135761  0.92640424  0.89060225     0.43500
H3569       H  0.75502948  0.87869764  0.88051159     0.37000
H3570       H  0.82414104  0.99297856  0.90678554     0.33500
H3571       H  0.94039460  0.97840083  0.85275376     0.25300
H3572       H  0.90971710  0.00672886  0.93312278     0.31200
H3573       H  0.79617676  0.95637431  0.93524009     0.37100
H3574       H  0.85128076  0.91687736  0.82636382     0.31600
H3575       H  0.78002873  0.89585136  0.81693947     0.30500
H3576       H  0.72000288  0.88746645  0.85744419     0.32100
H3577       H  0.72719694  0.93151111  0.88078036     0.31100
H3578       H  0.90550461  0.91703221  0.86751420     0.35100
H3579       H  0.84518687  0.85853263  0.87496640     0.27800
H3580       H  0.86594955  0.56504061  0.86225174     0.32100
H3581       H  0.74444687  0.96031363  0.91882508     0.34900
H3582       H  0.78732160  0.92991506  0.81588496     0.27500
H3583       H  0.85941062  0.86887710  0.89337607     0.40400
H3584       H  0.92530830  0.97223275  0.90893676     0.30500
H3585       H  0.93550016  0.00219732  0.86344433     0.38100
H3586       H  0.71291030  0.91962746  0.89919610     0.29900
H3587       H  0.87665407  0.99182579  0.94143280     0.30000
H3588       H  0.83499341  0.55417558  0.87246419     0.30200
Zr3589     Zr  0.84076242  0.81978982  0.31718702     2.17500
O3590       O  0.84405336  0.77548108  0.32738906    -0.52100
O3591       O  0.87641242  0.83213003  0.34165364    -0.75300
O3592       O  0.86071925  0.79809510  0.29576128    -0.82100
O3593       O  0.77045712  0.79628716  0.34434436    -0.83800
O3594       O  0.87739673  0.83129895  0.27338140    -0.79500
O3595       O  0.79719374  0.77772702  0.32963266    -0.91100
O3596       O  0.89868033  0.88275539  0.34821462    -0.77100
O3597       O  0.88217463  0.86764750  0.30812171    -0.86600
O3598       O  0.83869802  0.85608052  0.33666840    -0.86200
O3599       O  0.82667898  0.82405847  0.28787770    -0.73000
O3600       O  0.79049274  0.81505720  0.31469380    -0.85100
Zr3601     Zr  0.81908368  0.90554464  0.29434506     2.26400
Zr3602     Zr  0.86840510  0.87315907  0.27923537     2.06300
Zr3603     Zr  0.78894801  0.85166358  0.33410437     2.10000
Zr3604     Zr  0.87987218  0.90434870  0.32696502     1.78800
O3605       O  0.73418918  0.82913072  0.34039973    -0.93900
O3606       O  0.93469308  0.92612368  0.32106802    -0.41700
O3607       O  0.83022027  0.89978461  0.32390664    -0.78400
O3608       O  0.86949536  0.91197546  0.29752297    -0.97100
O3609       O  0.81867247  0.86807895  0.27563530    -0.90400
O3610       O  0.77765495  0.85816818  0.30498817    -0.93200
C3611       C  0.89354652  0.85561805  0.35114750     1.00500
C3612       C  0.77621515  0.77422167  0.34017574     1.13500
C3613       C  0.87225221  0.80640437  0.28061373     1.04300
O3614       O  0.92266173  0.90993894  0.28417351    -0.95400
O3615       O  0.86478310  0.90322019  0.25594457    -0.91100
O3616       O  0.83862143  0.92619013  0.26574532    -0.84300
C3617       C  0.85397557  0.92136253  0.25405131     1.10900
O3618       O  0.76036641  0.76867516  0.27599509    -0.97300
Zr3619     Zr  0.77754572  0.82097126  0.28577928     1.88900
O3620       O  0.77023696  0.89180262  0.28026906    -0.74000
O3621       O  0.88888426  0.87416434  0.25032121    -0.53300
O3622       O  0.77678560  0.81689921  0.25430280    -0.97900
O3623       O  0.72718602  0.78362421  0.29712929    -0.55100
O3624       O  0.74555926  0.84047965  0.27488326    -0.74500
C3625       C  0.74727098  0.86671149  0.27463688     0.97800
O3626       O  0.84343850  0.96154510  0.29366060    -0.63300
O3627       O  0.79781328  0.86278818  0.36500585    -0.58100
O3628       O  0.80053059  0.92948948  0.31338760    -0.94800
O3629       O  0.78014326  0.89804716  0.33658459    -0.93200
O3630       O  0.87777642  0.92752578  0.35438875    -0.93600
O3631       O  0.90661238  0.96018044  0.32693454    -0.92400
C3632       C  0.78662114  0.92293981  0.32782977     1.16700
H3633       H  0.84055514  0.85184421  0.34860119     0.32600
H3634       H  0.88489229  0.93212734  0.29350177     0.43500
H3635       H  0.75819596  0.85762547  0.30551783     0.37000
H3636       H  0.82357502  0.80728233  0.28043676     0.33500
H3637       H  0.94509137  0.93631481  0.33204923     0.25300
H3638       H  0.90793266  0.87303517  0.25194278     0.31200
H3639       H  0.79685558  0.81869482  0.25127991     0.37100
H3640       H  0.85782065  0.92717373  0.35418917     0.31600
H3641       H  0.78284523  0.86929103  0.36842615     0.30500
H3642       H  0.72483569  0.83141838  0.32963443     0.32100
H3643       H  0.71225739  0.78188847  0.28816053     0.31100
H3644       H  0.89267399  0.96543875  0.32064945     0.35100
H3645       H  0.85283029  0.96881300  0.30524057     0.27800
H3646       H  0.86611411  0.78140720  0.32683846     0.32100
H3647       H  0.74183475  0.76271668  0.26879673     0.34900
H3648       H  0.78996467  0.84249909  0.37049176     0.27500
H3649       H  0.86154943  0.96896462  0.28593256     0.40400
H3650       H  0.93258318  0.89723777  0.28541747     0.30500
H3651       H  0.93796607  0.90832666  0.32009124     0.38100
H3652       H  0.72364935  0.79426705  0.30693150     0.29900
H3653       H  0.87405227  0.85458948  0.24464524     0.30000
H3654       H  0.83379519  0.75899494  0.31860409     0.30200
Zr3655     Zr  0.50095147  0.81921037  0.20484542     2.17500
O3656       O  0.95105414  0.77599867  0.19262370    -0.52100
O3657       O  0.98202526  0.82894938  0.17632182    -0.75300
O3658       O  0.95752897  0.80174575  0.22311666    -0.82100
O3659       O  0.54501088  0.79296575  0.17864252    -0.83800
O3660       O  0.97348565  0.83656545  0.24503740    -0.79500
O3661       O  0.00388050  0.77363023  0.19556238    -0.91100
O3662       O  0.51253676  0.87965247  0.17015769    -0.77100
O3663       O  0.50924461  0.86868112  0.21210496    -0.86600
O3664       O  0.54153453  0.85257793  0.18575141    -0.86200
O3665       O  0.51689306  0.82565963  0.23486065    -0.73000
O3666       O  0.54454608  0.81202948  0.20984492    -0.85100
Zr3667     Zr  0.60791336  0.90345961  0.22855982     2.26400
Zr3668     Zr  0.52599634  0.87620937  0.24166990     2.06300
Zr3669     Zr  0.58461621  0.84561343  0.19061469     2.10000
Zr3670     Zr  0.54998404  0.90228875  0.19329255     1.78800
O3671       O  0.61294708  0.81785282  0.18991113    -0.93900
O3672       O  0.51693415  0.92508803  0.19417844    -0.41700
O3673       O  0.59320607  0.89551471  0.19859217    -0.78400
O3674       O  0.56575529  0.91224307  0.22328989    -0.97100
O3675       O  0.56880895  0.86894121  0.24733419    -0.90400
O3676       O  0.60005240  0.85429304  0.22004795    -0.93200
C3677       C  0.98973403  0.85226934  0.16660774     1.00500
C3678       C  0.51817811  0.77162141  0.18421800     1.13500
C3679       C  0.95344878  0.81198623  0.23748040     1.04300
O3680       O  0.50933890  0.91276960  0.23442561    -0.95400
O3681       O  0.55969200  0.90692703  0.26522034    -0.91100
O3682       O  0.60929989  0.92479952  0.25705776    -0.84300
C3683       C  0.58881730  0.92222892  0.26799459     1.10900
O3684       O  0.52177994  0.76892141  0.24797053    -0.97300
Zr3685     Zr  0.56129840  0.82013801  0.23931042     1.88900
O3686       O  0.64111272  0.89014279  0.24465364    -0.74000
O3687       O  0.50675254  0.88286141  0.26953817    -0.53300
O3688       O  0.55605993  0.81717532  0.27073065    -0.97900
O3689       O  0.57121473  0.77902514  0.23105011    -0.55100
O3690       O  0.61291927  0.83931982  0.25096515    -0.74500
C3691       C  0.63803982  0.86526002  0.25097001     0.97800
O3692       O  0.64190912  0.95881821  0.22774045    -0.63300
O3693       O  0.59269545  0.85412730  0.15957973    -0.58100
O3694       O  0.65144151  0.92361251  0.21001456    -0.94800
O3695       O  0.64069197  0.88849276  0.18853650    -0.93200
O3696       O  0.58043663  0.92228293  0.16704570    -0.93600
O3697       O  0.58164287  0.95792176  0.19317759    -0.92400
C3698       C  0.65925887  0.91418298  0.19662835     1.16700
H3699       H  0.53719685  0.84754169  0.17365059     0.32600
H3700       H  0.57120290  0.93284860  0.22656350     0.43500
H3701       H  0.61850273  0.85280143  0.22027287     0.37000
H3702       H  0.50214981  0.80986292  0.24229627     0.33500
H3703       H  0.51728826  0.93229210  0.18221411     0.25300
H3704       H  0.48717765  0.88252914  0.26706387     0.31200
H3705       H  0.54123329  0.82427088  0.27330435     0.37100
H3706       H  0.57001233  0.93138778  0.16047455     0.31600
H3707       H  0.60994555  0.85041829  0.15695485     0.30500
H3708       H  0.60983773  0.80930910  0.17801927     0.32100
H3709       H  0.58384271  0.77803284  0.24062189     0.31100
H3710       H  0.60213834  0.96201750  0.19721553     0.35100
H3711       H  0.62845000  0.96760100  0.23020423     0.27800
H3712       H  0.93592363  0.78319136  0.19340763     0.32100
H3713       H  0.50910195  0.75989564  0.23742385     0.34900
H3714       H  0.57448013  0.83655892  0.15417366     0.27500
H3715       H  0.65544879  0.96393869  0.23801446     0.40400
H3716       H  0.48659940  0.90099043  0.23547892     0.30500
H3717       H  0.49576805  0.90763443  0.19562354     0.38100
H3718       H  0.58559404  0.78733070  0.22114806     0.29900
H3719       H  0.50066556  0.86380751  0.27607332     0.30000
H3720       H  0.94415558  0.75927846  0.20119178     0.30200
Zr3721     Zr  0.83490755  0.98850515  0.15109062     2.17500
O3722       O  0.78441230  0.94246259  0.15387133    -0.52100
O3723       O  0.84962329  0.96730939  0.17529380    -0.75300
O3724       O  0.82865309  0.94553556  0.13332496    -0.82100
O3725       O  0.80219676  0.53354257  0.17505804    -0.83800
O3726       O  0.84648062  0.96627485  0.10701081    -0.79500
O3727       O  0.79222300  0.98412583  0.16684776    -0.91100
O3728       O  0.89798120  0.00152485  0.18388278    -0.77100
O3729       O  0.88524843  0.50188673  0.14265691    -0.86600
O3730       O  0.86773391  0.52933174  0.17136557    -0.86200
O3731       O  0.83829484  0.50738829  0.12192106    -0.73000
O3732       O  0.82576611  0.53223269  0.14795452    -0.85100
Zr3733     Zr  0.91592475  0.60007314  0.12958819     2.26400
Zr3734     Zr  0.88987044  0.52050778  0.11369927     2.06300
Zr3735     Zr  0.85840711  0.57129634  0.16795753     2.10000
Zr3736     Zr  0.91830663  0.54120090  0.16239846     1.78800
O3737       O  0.83534023  0.60357418  0.17240695    -0.93900
O3738       O  0.94433390  0.51176893  0.15766351    -0.41700
O3739       O  0.90926640  0.58317881  0.15905274    -0.78400
O3740       O  0.92622272  0.55883883  0.13283915    -0.97100
O3741       O  0.88094318  0.56221603  0.11025488    -0.90400
O3742       O  0.86597415  0.58980554  0.13896030    -0.93200
C3743       C  0.87208462  0.97695361  0.18609289     1.00500
C3744       C  0.78533163  0.00195636  0.17498937     1.13500
C3745       C  0.83283037  0.94345734  0.11713620     1.04300
O3746       O  0.92925026  0.50577304  0.11663960    -0.95400
O3747       O  0.91847955  0.55673303  0.09088217    -0.91100
O3748       O  0.93913567  0.60540754  0.10115587    -0.84300
C3749       C  0.93498633  0.58587028  0.08918041     1.10900
O3750       O  0.77985105  0.51351379  0.10951521    -0.97300
Zr3751     Zr  0.83142619  0.55115671  0.11933692     1.88900
O3752       O  0.90130610  0.62986130  0.11190055    -0.74000
O3753       O  0.89180484  0.50400708  0.08410168    -0.53300
O3754       O  0.82822810  0.54516048  0.08798409    -0.97900
O3755       O  0.78983736  0.55959866  0.12903102    -0.55100
O3756       O  0.84953246  0.60249101  0.10885569    -0.74500
C3757       C  0.87563280  0.62693124  0.10696162     0.97800
O3758       O  0.97177584  0.63334281  0.13037517    -0.63300
O3759       O  0.86151857  0.56878879  0.19937586    -0.58100
O3760       O  0.93138249  0.64273629  0.14878579    -0.94800
O3761       O  0.90200155  0.62546290  0.17323565    -0.93200
O3762       O  0.93866330  0.56961460  0.18934161    -0.93600
O3763       O  0.97415626  0.57366535  0.16363141    -0.92400
C3764       C  0.92489878  0.64642898  0.16429871     1.16700
H3765       H  0.86303495  0.52313873  0.18335163     0.32600
H3766       H  0.94684102  0.56494430  0.12917110     0.43500
H3767       H  0.86423039  0.60800810  0.13913146     0.37000
H3768       H  0.82216108  0.49167917  0.11493222     0.33500
H3769       H  0.95518277  0.51352935  0.16869681     0.25300
H3770       H  0.89160633  0.48427394  0.08501279     0.31200
H3771       H  0.83151109  0.52759607  0.08571753     0.37100
H3772       H  0.92121411  0.56015054  0.19757153     0.31600
H3773       H  0.87613605  0.59008608  0.20306496     0.30500
H3774       H  0.82774672  0.60528258  0.16087081     0.32100
H3775       H  0.79497092  0.57990477  0.12440572     0.31100
H3776       H  0.97879625  0.59124030  0.15605446     0.35100
H3777       H  0.97738704  0.63665816  0.14280339     0.27800
H3778       H  0.78837348  0.92583118  0.15739646     0.32100
H3779       H  0.77341905  0.52448253  0.10141219     0.34900
H3780       H  0.84122830  0.56497422  0.20361692     0.27500
H3781       H  0.98017158  0.62027692  0.12630778     0.40400
H3782       H  0.94150394  0.01300217  0.10882141     0.30500
H3783       H  0.92763698  0.49009187  0.15717509     0.38100
H3784       H  0.79279852  0.56279736  0.14170410     0.29900
H3785       H  0.87172845  0.49874670  0.07881911     0.30000
H3786       H  0.77582061  0.93696884  0.14199605     0.30200
Zr3787     Zr  0.84204013  0.83094446  0.03419136     2.17500
O3788       O  0.79827034  0.83758488  0.02696893    -0.52100
O3789       O  0.85493000  0.86208699  0.00845937    -0.75300
O3790       O  0.83406031  0.86307825  0.05507078    -0.82100
O3791       O  0.80885130  0.75711456  0.00790898    -0.83800
O3792       O  0.88264530  0.89197120  0.06300524    -0.79500
O3793       O  0.79647421  0.78945367  0.02197789    -0.91100
O3794       O  0.90373608  0.87603246  0.00039489    -0.77100
O3795       O  0.89347592  0.86776879  0.04191425    -0.86600
O3796       O  0.87332519  0.82046757  0.01483736    -0.86200
O3797       O  0.84618422  0.82040690  0.06423605    -0.73000
O3798       O  0.82921612  0.77857788  0.03804891    -0.85100
Zr3799     Zr  0.91708811  0.79623859  0.05797391     2.26400
Zr3800     Zr  0.89890506  0.85637387  0.07142183     2.06300
Zr3801     Zr  0.86147476  0.76878608  0.01918538     2.10000
Zr3802     Zr  0.92478321  0.85780229  0.02295739     1.78800
O3803       O  0.83357625  0.71294885  0.01822359    -0.93900
O3804       O  0.95324911  0.91330723  0.02675061    -0.41700
O3805       O  0.91259427  0.80609800  0.02800463    -0.78400
O3806       O  0.93230625  0.84864253  0.05283683    -0.97100
O3807       O  0.88421726  0.80431235  0.07626147    -0.90400
O3808       O  0.86609809  0.75889871  0.04877304    -0.93200
C3809       C  0.87747052  0.87415073  0.99782363     1.00500
C3810       C  0.78991694  0.76719316  0.01159882     1.13500
C3811       C  0.85460726  0.88486602  0.06429063     1.04300
O3812       O  0.94708943  0.90406924  0.07612329    -0.95400
O3813       O  0.92761943  0.85069097  0.09489724    -0.91100
O3814       O  0.93738269  0.81267930  0.08729911    -0.84300
C3815       C  0.93804478  0.83257759  0.09807891     1.10900
O3816       O  0.78310868  0.76381066  0.07143535    -0.97300
Zr3817     Zr  0.83340789  0.76804365  0.06752563     1.88900
O3818       O  0.89685634  0.74951945  0.07388238    -0.74000
O3819       O  0.87596461  0.86028539  0.09851504    -0.53300
O3820       O  0.82356490  0.76981770  0.09829241    -0.97900
O3821       O  0.78985334  0.71818727  0.05989412    -0.55100
O3822       O  0.84710467  0.73340602  0.08132680    -0.74500
C3823       C  0.87139224  0.73095547  0.08118309     0.97800
O3824       O  0.97134693  0.81054979  0.05871423    -0.63300
O3825       O  0.86927697  0.76872303  0.98804491    -0.58100
O3826       O  0.93332231  0.76844557  0.04030530    -0.94800
O3827       O  0.90428786  0.75582456  0.01568041    -0.93200
O3828       O  0.94707334  0.85240079  0.99604597    -0.93600
O3829       O  0.97982087  0.87540188  0.02328653    -0.92400
C3830       C  0.92680550  0.75738659  0.02503212     1.16700
H3831       H  0.86853342  0.82097487  0.00280142     0.32600
H3832       H  0.95349121  0.86182439  0.05634033     0.43500
H3833       H  0.86204416  0.73810327  0.04917749     0.37000
H3834       H  0.83241620  0.82333318  0.07176976     0.33500
H3835       H  0.96292895  0.92123432  0.01533210     0.25300
H3836       H  0.89285517  0.86911241  0.10714937     0.31200
H3837       H  0.80877700  0.74828739  0.10135365     0.37100
H3838       H  0.95471944  0.87227478  0.99009820     0.31600
H3839       H  0.89163031  0.78292746  0.98646339     0.30500
H3840       H  0.82096477  0.70760421  0.00754025     0.32100
H3841       H  0.78716206  0.70493076  0.06992867     0.31100
H3842       H  0.98170073  0.85944498  0.02972600     0.35100
H3843       H  0.98257252  0.83274495  0.06145325     0.27800
H3844       H  0.80639883  0.85993961  0.02632962     0.32100
H3845       H  0.78032986  0.77368135  0.06106275     0.34900
H3846       H  0.86654980  0.74818402  0.98553081     0.27500
H3847       H  0.97378414  0.80053321  0.06912301     0.40400
H3848       H  0.95119504  0.91496713  0.06494415     0.30500
H3849       H  0.93732783  0.91943887  0.02773875     0.38100
H3850       H  0.79759183  0.71041023  0.05045572     0.29900
H3851       H  0.86252050  0.83882175  0.10220950     0.30000
H3852       H  0.78456266  0.83065376  0.03723511     0.30200
Zr3853     Zr  0.68303247  0.67278947  0.81868770     2.17500
O3854       O  0.68286932  0.71841114  0.82958583    -0.52100
O3855       O  0.65402979  0.66349397  0.84577645    -0.75300
O3856       O  0.65647441  0.69049030  0.79954223    -0.82100
O3857       O  0.75248306  0.69619071  0.84462470    -0.83800
O3858       O  0.63907087  0.65758235  0.77674755    -0.79500
O3859       O  0.73348015  0.71464172  0.82453423    -0.91100
O3860       O  0.63092957  0.61270904  0.85197602    -0.77100
O3861       O  0.64044115  0.62397204  0.81146800    -0.86600
O3862       O  0.68798338  0.63782857  0.83762415    -0.86200
O3863       O  0.69192870  0.66638448  0.78861969    -0.73000
O3864       O  0.73231474  0.67707618  0.81352522    -0.85100
Zr3865     Zr  0.70156469  0.58573972  0.79437154     2.26400
Zr3866     Zr  0.64946145  0.61645486  0.78193811     2.06300
Zr3867     Zr  0.73725279  0.64276827  0.83274662     2.10000
Zr3868     Zr  0.64569980  0.58871517  0.82981745     1.78800
O3869       O  0.79323744  0.66824487  0.83409148    -0.93900
O3870       O  0.59008954  0.56613574  0.82612733    -0.41700
O3871       O  0.69493514  0.59360710  0.82443260    -0.78400
O3872       O  0.65136913  0.57887338  0.79984696    -0.97100
O3873       O  0.69866979  0.62159021  0.77586325    -0.90400
O3874       O  0.74411949  0.63421212  0.80310167    -0.93200
C3875       C  0.63766283  0.64023938  0.85546652     1.00500
C3876       C  0.74915159  0.71833478  0.83817659     1.13500
C3877       C  0.64330545  0.68169230  0.78475641     1.04300
O3878       O  0.59597576  0.57975039  0.78853931    -0.95400
O3879       O  0.65119395  0.58600905  0.75829012    -0.91100
O3880       O  0.67888214  0.56349117  0.76617572    -0.84300
C3881       C  0.66210477  0.56822375  0.75541438     1.10900
O3882       O  0.75880245  0.72217948  0.77497887    -0.97300
Zr3883     Zr  0.74099410  0.66965117  0.78407944     1.88900
O3884       O  0.74769111  0.59813268  0.77822026    -0.74000
O3885       O  0.62282263  0.61208888  0.75462032    -0.53300
O3886       O  0.73865040  0.67599999  0.75294762    -0.97900
O3887       O  0.79096375  0.70956342  0.79470734    -0.55100
O3888       O  0.77145963  0.64886329  0.77168589    -0.74500
C3889       C  0.76995195  0.62263058  0.77181607     0.97800
O3890       O  0.67930346  0.53030526  0.79539249    -0.63300
O3891       O  0.73554906  0.63474603  0.86392150    -0.58100
O3892       O  0.72499823  0.56487157  0.81252897    -0.94800
O3893       O  0.74727214  0.59797583  0.83524237    -0.93200
O3894       O  0.65082177  0.56869244  0.85751193    -0.93600
O3895       O  0.62351708  0.53341548  0.83272893    -0.92400
C3896       C  0.74060867  0.57295951  0.82657358     1.16700
H3897       H  0.68846686  0.64290248  0.84970549     0.32600
H3898       H  0.63562268  0.55849813  0.79647896     0.43500
H3899       H  0.76369923  0.63477552  0.80283797     0.37000
H3900       H  0.69334203  0.68254261  0.78138147     0.33500
H3901       H  0.58276284  0.54555081  0.82101957     0.25300
H3902       H  0.60392086  0.61278659  0.75758699     0.31200
H3903       H  0.75991525  0.68341956  0.74876536     0.37100
H3904       H  0.67297809  0.57514668  0.85836886     0.31600
H3905       H  0.75258880  0.63062938  0.86628687     0.30500
H3906       H  0.79766784  0.65951126  0.84442341     0.32100
H3907       H  0.80622188  0.70938442  0.78661616     0.31100
H3908       H  0.63990356  0.52928875  0.82868410     0.35100
H3909       H  0.65688854  0.52188420  0.79384359     0.27800
H3910       H  0.66103815  0.71324877  0.82990664     0.32100
H3911       H  0.74835869  0.72968905  0.78288346     0.34900
H3912       H  0.74250037  0.65519454  0.86913815     0.27500
H3913       H  0.68622002  0.52465295  0.78465517     0.40400
H3914       H  0.58563543  0.59216780  0.78897022     0.30500
H3915       H  0.58164415  0.56209077  0.83804448     0.38100
H3916       H  0.79418242  0.70158810  0.80573116     0.29900
H3917       H  0.63595157  0.63127454  0.74819786     0.30000
H3918       H  0.69239632  0.73404221  0.82037976     0.30200
Zr3919     Zr  0.51855377  0.67792202  0.70627090     2.17500
O3920       O  0.56350924  0.72664965  0.69839784    -0.52100
O3921       O  0.54250678  0.67341063  0.67900991    -0.75300
O3922       O  0.56017463  0.69544343  0.72766851    -0.82100
O3923       O  0.97662687  0.70148972  0.67745627    -0.83800
O3924       O  0.54370223  0.65793079  0.74780214    -0.79500
O3925       O  0.50560518  0.71723029  0.70179132    -0.91100
O3926       O  0.51762658  0.62345453  0.67042773    -0.77100
O3927       O  0.01472434  0.62992131  0.71052731    -0.86600
O3928       O  0.98197637  0.64527881  0.68464310    -0.86200
O3929       O  0.00293854  0.66927919  0.73442077    -0.73000
O3930       O  0.97486514  0.68247299  0.70982783    -0.85100
Zr3931     Zr  0.91353960  0.58829542  0.72591437     2.26400
Zr3932     Zr  0.99627045  0.61933098  0.73965695     2.06300
Zr3933     Zr  0.93679884  0.64911992  0.68945479     2.10000
Zr3934     Zr  0.97524479  0.59588446  0.69095637     1.78800
O3935       O  0.90964447  0.67796851  0.69073381    -0.93900
O3936       O  0.00615431  0.57098606  0.69370019    -0.41700
O3937       O  0.92993892  0.59936588  0.69615331    -0.78400
O3938       O  0.95797045  0.58329876  0.72043021    -0.97100
O3939       O  0.95133055  0.62308714  0.74539560    -0.90400
O3940       O  0.91917182  0.63713687  0.71853481    -0.93200
C3941       C  0.53781811  0.65176268  0.66821047     1.00500
C3942       C  0.49745218  0.72182462  0.68706785     1.13500
C3943       C  0.56340078  0.68417260  0.74185636     1.04300
O3944       O  0.01132383  0.58183352  0.73132383    -0.95400
O3945       O  0.96371530  0.59004845  0.76348448    -0.91100
O3946       O  0.91384536  0.56763815  0.75476499    -0.84300
C3947       C  0.93481468  0.57269590  0.76611492     1.10900
O3948       O  0.99162159  0.72362422  0.74799263    -0.97300
Zr3949     Zr  0.95621497  0.67107811  0.73885267     1.88900
O3950       O  0.87829778  0.59708177  0.74311973    -0.74000
O3951       O  0.01771897  0.61126572  0.76622857    -0.53300
O3952       O  0.96328691  0.67014059  0.77001880    -0.97900
O3953       O  0.94321680  0.71123431  0.73453119    -0.55100
O3954       O  0.90308264  0.64782447  0.74926155    -0.74500
C3955       C  0.87903236  0.62094024  0.74955360     0.97800
O3956       O  0.88541990  0.53251100  0.72412408    -0.63300
O3957       O  0.92557685  0.64097356  0.65855097    -0.58100
O3958       O  0.86895074  0.57090415  0.70758835    -0.94800
O3959       O  0.88096984  0.60677122  0.68646565    -0.93200
O3960       O  0.94946897  0.57732161  0.66316115    -0.93600
O3961       O  0.94278122  0.54031618  0.68917794    -0.92400
C3962       C  0.86192774  0.58115188  0.69421772     1.16700
H3963       H  0.98740343  0.65113169  0.67277315     0.32600
H3964       H  0.95349259  0.56268357  0.72310380     0.43500
H3965       H  0.89998301  0.63725328  0.71877926     0.37000
H3966       H  0.51243617  0.68096769  0.74388838     0.33500
H3967       H  0.00467467  0.56141661  0.68221987     0.25300
H3968       H  0.03751565  0.61261500  0.76298725     0.31200
H3969       H  0.95876736  0.68576607  0.77482847     0.37100
H3970       H  0.96104967  0.56864450  0.65727926     0.31600
H3971       H  0.94511475  0.65555816  0.65278522     0.30500
H3972       H  0.89977185  0.67470184  0.67921370     0.32100
H3973       H  0.92806074  0.70800917  0.74370705     0.31100
H3974       H  0.92188962  0.53635663  0.69223234     0.35100
H3975       H  0.89869887  0.52588216  0.72998232     0.27800
H3976       H  0.58114430  0.72290476  0.69819934     0.32100
H3977       H  0.00908553  0.73102540  0.73978457     0.34900
H3978       H  0.92311495  0.62052373  0.65612467     0.27500
H3979       H  0.86763986  0.52609582  0.73200297     0.40400
H3980       H  0.53201048  0.59080465  0.73153274     0.30500
H3981       H  0.52900896  0.58841218  0.69597299     0.38100
H3982       H  0.93113850  0.70543772  0.72364005     0.29900
H3983       H  0.02340537  0.62938522  0.77372117     0.30000
H3984       H  0.56750558  0.74054104  0.70842523     0.30200
Zr3985     Zr  0.52262050  0.82151917  0.48101812     2.17500
O3986       O  0.56825379  0.82124901  0.49206584    -0.52100
O3987       O  0.54293285  0.85068288  0.50828488    -0.75300
O3988       O  0.56676220  0.84716880  0.46152612    -0.82100
O3989       O  0.98004273  0.76116232  0.51004289    -0.83800
O3990       O  0.55068778  0.86694187  0.44030477    -0.79500
O3991       O  0.51156333  0.77040128  0.48698198    -0.91100
O3992       O  0.51535100  0.87401097  0.51517407    -0.77100
O3993       O  0.02044310  0.86570260  0.47077222    -0.86600
O3994       O  0.98776969  0.82476497  0.49994541    -0.86200
O3995       O  0.00560143  0.80931181  0.45122218    -0.73000
O3996       O  0.97741843  0.77474485  0.47805929    -0.85100
Zr3997     Zr  0.91861924  0.80792416  0.45861544     2.26400
Zr3998     Zr  0.99993587  0.85168992  0.44214115     2.06300
Zr3999     Zr  0.94177925  0.77643065  0.49790952     2.10000
Zr4000     Zr  0.98391742  0.86761172  0.48986327     1.78800
O4001       O  0.91081906  0.72133055  0.50215200    -0.93900
O4002       O  0.02194488  0.92138437  0.48490741    -0.48900
O4003       O  0.93708941  0.81926138  0.48793706    -0.78400
O4004       O  0.96465136  0.85678856  0.46062048    -0.97100
O4005       O  0.95332836  0.80386397  0.43946932    -0.90400
O4006       O  0.92288818  0.76543353  0.46907526    -0.93200
C4007       C  0.53625165  0.86698670  0.51842723     1.00500
C4008       C  0.50172199  0.75750523  0.50154624     1.13500
C4009       C  0.57086302  0.86194808  0.44738889     1.04300
O4010       O  0.02047960  0.90663681  0.44508226    -0.95400
O4011       O  0.96667730  0.84904898  0.41874652    -0.91100
O4012       O  0.91749645  0.82379246  0.42878010    -0.84300
C4013       C  0.93763532  0.83799508  0.41684718     1.10900
O4014       O  0.99082380  0.74178026  0.44039674    -0.97300
Zr4015     Zr  0.95742799  0.76177120  0.44936504     1.88900
O4016       O  0.88007515  0.76049813  0.44550527    -0.74000
O4017       O  0.01775011  0.86557414  0.41232995    -0.53300
O4018       O  0.96188084  0.76041995  0.41800170    -0.97900
O4019       O  0.94138812  0.71005415  0.45929363    -0.55100
O4020       O  0.90401392  0.73305980  0.43957353    -0.74500
C4021       C  0.88028283  0.73660456  0.43987822     0.97800
O4022       O  0.89173603  0.83717209  0.45839578    -0.63300
O4023       O  0.93947469  0.78595093  0.52868392    -0.58100
O4024       O  0.87572375  0.78842949  0.47790747    -0.94800
O4025       O  0.88660970  0.76622199  0.50018267    -0.93200
O4026       O  0.95661837  0.86847546  0.51576187    -0.93600
O4027       O  0.95827634  0.89784927  0.48729298    -0.92400
C4028       C  0.86797923  0.77291108  0.49182509     1.16700
H4029       H  0.99279874  0.82580050  0.51201058     0.32600
H4030       H  0.96104874  0.87285215  0.45633364     0.43500
H4031       H  0.90338300  0.74662947  0.46998928     0.37000
H4032       H  0.52120690  0.81134114  0.44352706     0.33500
H4033       H  0.01970989  0.93260567  0.49489154     0.25300
H4034       H  0.03796859  0.88472162  0.41297731     0.31200
H4035       H  0.94748617  0.76679381  0.41342352     0.37100
H4036       H  0.96977383  0.88912545  0.52084821     0.31600
H4037       H  0.93014574  0.79927882  0.52917428     0.30500
H4038       H  0.89676779  0.71895305  0.51181117     0.32100
H4039       H  0.92695994  0.69632697  0.45028266     0.31100
H4040       H  0.93688915  0.88292207  0.48381031     0.35100
H4041       H  0.88908958  0.84105316  0.47068654     0.27800
H4042       H  0.58522939  0.84282983  0.49189255     0.32100
H4043       H  0.00800175  0.75049243  0.44886099     0.34900
H4044       H  0.92343876  0.76605255  0.53336136     0.27500
H4045       H  0.90731590  0.85763182  0.45415407     0.40400
H4046       H  0.53110476  0.91824204  0.45080311     0.30500
H4047       H  0.53202722  0.91768974  0.48913279     0.38100
H4048       H  0.92818443  0.70713612  0.46948416     0.29900
H4049       H  0.02237217  0.84970287  0.40810693     0.30000
H4050       H  0.57381987  0.81070977  0.48309151     0.30200
Zr4051     Zr  0.68487722  0.99305412  0.37005444     2.17500
O4052       O  0.68006649  0.94580097  0.35784866    -0.52100
O4053       O  0.65268152  0.97371883  0.34373646    -0.75300
O4054       O  0.66136437  0.94914507  0.38960147    -0.82100
O4055       O  0.75702349  0.53942091  0.34572765    -0.83800
O4056       O  0.64359277  0.96409591  0.41250335    -0.79500
O4057       O  0.73071172  0.99520800  0.35969205    -0.91100
O4058       O  0.63142241  0.00321815  0.33754685    -0.77100
O4059       O  0.64258943  0.49724156  0.37758619    -0.86600
O4060       O  0.68919497  0.53098473  0.35093108    -0.86200
O4061       O  0.69521412  0.50798410  0.40002705    -0.73000
O4062       O  0.73437690  0.53775489  0.37498826    -0.85100
Zr4063     Zr  0.70158626  0.59699590  0.39418117     2.26400
Zr4064     Zr  0.65198913  0.51418989  0.40709043     2.06300
Zr4065     Zr  0.73783895  0.57607086  0.35563931     2.10000
Zr4066     Zr  0.64631863  0.53689734  0.35905284     1.78800
O4067       O  0.79341765  0.60824181  0.35275840    -0.93900
O4068       O  0.59057785  0.50548513  0.36205779    -0.41700
O4069       O  0.69484145  0.58226948  0.36405042    -0.78400
O4070       O  0.65221925  0.55264360  0.38897902    -0.97100
O4071       O  0.70054528  0.55909596  0.41258499    -0.90400
O4072       O  0.74439108  0.59170130  0.38517022    -0.93200
C4073       C  0.63659961  0.98130777  0.33410950     1.00500
C4074       C  0.75353385  0.01372938  0.35053210     1.13500
C4075       C  0.64847916  0.94458480  0.40447832     1.04300
O4076       O  0.59761380  0.49531158  0.40134621    -0.95400
O4077       O  0.65039697  0.54575002  0.43031981    -0.91100
O4078       O  0.67982214  0.59575098  0.42269507    -0.84300
C4079       C  0.66229375  0.57450727  0.43329347     1.10900
O4080       O  0.76125295  0.51954141  0.41343589    -0.97300
Zr4081     Zr  0.74362232  0.55458489  0.40432120     1.88900
O4082       O  0.74740533  0.63172187  0.41049303    -0.74000
O4083       O  0.63488425  0.49440172  0.43632505    -0.53300
O4084       O  0.74206875  0.54916582  0.43575272    -0.97900
O4085       O  0.79477684  0.56889824  0.39340456    -0.55100
O4086       O  0.77393718  0.60661157  0.41550966    -0.74500
C4087       C  0.77089064  0.63047552  0.41604153     0.97800
O4088       O  0.67378002  0.62526842  0.39580333    -0.63300
O4089       O  0.73305396  0.57977733  0.32446779    -0.58100
O4090       O  0.72547291  0.64169970  0.37630050    -0.94800
O4091       O  0.74742422  0.63094411  0.35339498    -0.93200
O4092       O  0.65108369  0.56055824  0.33091379    -0.93600
O4093       O  0.62266430  0.56909135  0.35846288    -0.92400
C4094       C  0.74080345  0.64934691  0.36217946     1.16700
H4095       H  0.68903461  0.52586276  0.33891711     0.32600
H4096       H  0.63607109  0.55674471  0.39237330     0.43500
H4097       H  0.76341879  0.61074462  0.38525697     0.37000
H4098       H  0.69679870  0.49331898  0.40731967     0.33500
H4099       H  0.58221366  0.50714092  0.35073801     0.25300
H4100       H  0.61527801  0.47475579  0.43515045     0.31200
H4101       H  0.74367202  0.56827081  0.44044429     0.37100
H4102       H  0.67322325  0.57600731  0.32989662     0.31600
H4103       H  0.75042568  0.60017245  0.32134842     0.30500
H4104       H  0.79638909  0.61836850  0.34140034     0.32100
H4105       H  0.80925230  0.58625142  0.40082276     0.31100
H4106       H  0.64020676  0.59033402  0.35916052     0.35100
H4107       H  0.66915725  0.62782126  0.38365649     0.27800
H4108       H  0.65790627  0.93017380  0.35836340     0.32100
H4109       H  0.77999763  0.53211702  0.42047271     0.34900
H4110       H  0.73860637  0.56504534  0.31940509     0.27500
H4111       H  0.68914769  0.64614045  0.39977678     0.40400
H4112       H  0.59001136  0.97648526  0.40003297     0.30500
H4113       H  0.58641191  0.48408722  0.36235921     0.38100
H4114       H  0.79598210  0.57824762  0.38197344     0.29900
H4115       H  0.64998271  0.48880998  0.44076026     0.30000
H4116       H  0.69019324  0.93857975  0.36609794     0.30200
Zr4117     Zr  0.67448870  0.00093262  0.65375360     2.17500
O4118       O  0.71113737  0.56131204  0.65607446    -0.52100
O4119       O  0.65769607  0.51994312  0.67943112    -0.75300
O4120       O  0.68524444  0.54643634  0.63367248    -0.82100
O4121       O  0.71146923  0.96373993  0.68035786    -0.83800
O4122       O  0.63736748  0.52040184  0.62541345    -0.79500
O4123       O  0.72225036  0.51399647  0.66795074    -0.91100
O4124       O  0.60630013  0.98023380  0.68473889    -0.77100
O4125       O  0.62364253  0.98297862  0.64331652    -0.86600
O4126       O  0.64279859  0.95891091  0.67244945    -0.86200
O4127       O  0.67511495  0.98442950  0.62450675    -0.73000
O4128       O  0.69112390  0.96362970  0.65148276    -0.85100
Zr4129     Zr  0.60672938  0.88816497  0.62910339     2.26400
Zr4130     Zr  0.62309437  0.96450503  0.61452807     2.06300
Zr4131     Zr  0.65854894  0.92140460  0.66987754     2.10000
Zr4132     Zr  0.59181307  0.94163147  0.66187896     1.78800
O4133       O  0.68702638  0.89415088  0.67347406    -0.93900
O4134       O  0.56278134  0.96722904  0.65487224    -0.41700
O4135       O  0.60795461  0.90448009  0.65860557    -0.78400
O4136       O  0.58839864  0.92367500  0.63236389    -0.97100
O4137       O  0.64071440  0.92891532  0.61109390    -0.90400
O4138       O  0.65725389  0.90521658  0.64070528    -0.93200
C4139       C  0.63312575  0.50859490  0.68864810     1.00500
C4140       C  0.72865586  0.99333946  0.67791630     1.13500
C4141       C  0.66412472  0.54306542  0.62328289     1.04300
O4142       O  0.57561183  0.96681054  0.61507060    -0.95400
O4143       O  0.60158366  0.92981842  0.59007580    -0.91100
O4144       O  0.58855728  0.88206612  0.59891988    -0.84300
C4145       C  0.59012590  0.90109495  0.58730382     1.10900
O4146       O  0.74214742  0.99097340  0.61945373    -0.97300
Zr4147     Zr  0.69078514  0.94679031  0.62265311     1.88900
O4148       O  0.63116280  0.86273330  0.61567823    -0.74000
O4149       O  0.62897112  0.99088178  0.58710998    -0.53300
O4150       O  0.70482263  0.96153686  0.59259632    -0.97900
O4151       O  0.73149254  0.93796634  0.63337240    -0.55100
O4152       O  0.68021058  0.89944093  0.60892202    -0.74500
C4153       C  0.65773321  0.87187050  0.60903433     0.97800
O4154       O  0.55301471  0.84895486  0.62439026    -0.63300
O4155       O  0.64978165  0.91970532  0.70101317    -0.58100
O4156       O  0.58970605  0.84646142  0.64887680    -0.94800
O4157       O  0.61571138  0.86586263  0.67423699    -0.93200
O4158       O  0.56822150  0.91445416  0.68854929    -0.93600
O4159       O  0.53833342  0.90095480  0.65908093    -0.92400
C4160       C  0.59439387  0.84360984  0.66483627     1.16700
H4161       H  0.64548886  0.96400909  0.68464783     0.32600
H4162       H  0.56772472  0.91477392  0.62800437     0.43500
H4163       H  0.66268791  0.88926045  0.64109910     0.37000
H4164       H  0.68995097  0.00120748  0.61758140     0.33500
H4165       H  0.54437166  0.95747412  0.66242031     0.25300
H4166       H  0.60826927  0.98125395  0.58171033     0.31200
H4167       H  0.69112480  0.96938252  0.58885400     0.37100
H4168       H  0.55635307  0.92400011  0.69296663     0.31600
H4169       H  0.64419068  0.89862105  0.70441816     0.30500
H4170       H  0.67259619  0.87491765  0.67945915     0.32100
H4171       H  0.73700470  0.92920611  0.62338474     0.31100
H4172       H  0.53931228  0.88177315  0.65889086     0.35100
H4173       H  0.54266964  0.84575791  0.63575758     0.27800
H4174       H  0.73227228  0.56472271  0.65741137     0.32100
H4175       H  0.74477245  0.00387799  0.62976740     0.34900
H4176       H  0.67044043  0.93285696  0.70614693     0.27500
H4177       H  0.55326271  0.82972132  0.62198050     0.40400
H4178       H  0.58042750  0.98488778  0.62237478     0.30500
H4179       H  0.57517675  0.98830346  0.65955623     0.38100
H4180       H  0.72112509  0.92074233  0.64158512     0.29900
H4181       H  0.64130697  0.98509806  0.57956252     0.30000
H4182       H  0.70636147  0.56778482  0.66725132     0.30200
Zr4183     Zr  0.68384368  0.66278459  0.53417861     2.17500
O4184       O  0.72841980  0.65657789  0.52835678    -0.52100
O4185       O  0.66731557  0.63068938  0.50829828    -0.75300
O4186       O  0.68395833  0.62235600  0.55150699    -0.82100
O4187       O  0.72114939  0.73916748  0.51181179    -0.83800
O4188       O  0.66958092  0.62907403  0.57822108    -0.79500
O4189       O  0.73073540  0.70210777  0.52163228    -0.91100
O4190       O  0.61657139  0.61371515  0.50365122    -0.77100
O4191       O  0.63325810  0.62859388  0.54442472    -0.86600
O4192       O  0.65165688  0.67261327  0.51539520    -0.86200
O4193       O  0.68473976  0.67864700  0.56378635    -0.73000
O4194       O  0.69753653  0.71532608  0.53818491    -0.85100
Zr4195     Zr  0.61334958  0.70404607  0.55947726     2.26400
Zr4196     Zr  0.63262795  0.64499646  0.57366867     2.06300
Zr4197     Zr  0.66590708  0.72523066  0.51931847     2.10000
Zr4198     Zr  0.60093870  0.63796745  0.52582919     1.78800
O4199       O  0.69172974  0.78028594  0.51448717    -0.93900
O4200       O  0.56958144  0.58307220  0.53101027    -0.41700
O4201       O  0.61541314  0.69045193  0.52989392    -0.78400
O4202       O  0.59712306  0.65077366  0.55567686    -0.97100
O4203       O  0.64696836  0.69726347  0.57798821    -0.90400
O4204       O  0.66362354  0.73896354  0.54861346    -0.93200
C4205       C  0.64237925  0.61570577  0.49951231     1.00500
C4206       C  0.73939717  0.72779859  0.51425086     1.13500
C4207       C  0.67953362  0.61645283  0.56770141     1.04300
O4208       O  0.58584103  0.59506919  0.57283142    -0.95400
O4209       O  0.61171232  0.65873804  0.59847768    -0.91100
O4210       O  0.59231292  0.68796333  0.58860102    -0.84300
C4211       C  0.59637738  0.67270969  0.60059333     1.10900
O4212       O  0.74734224  0.73951230  0.57572162    -0.97300
Zr4213     Zr  0.69687368  0.73082847  0.56720723     1.88900
O4214       O  0.63655965  0.75344951  0.57356214    -0.74000
O4215       O  0.63236455  0.61728196  0.59962511    -0.53300
O4216       O  0.70059634  0.72544916  0.59832296    -0.97900
O4217       O  0.73856516  0.77989732  0.55697086    -0.55100
O4218       O  0.68642508  0.76824783  0.58000805    -0.74500
C4219       C  0.66305676  0.77206050  0.57996113     0.97800
O4220       O  0.56054064  0.69432003  0.56079054    -0.63300
O4221       O  0.66031491  0.71976027  0.48795035    -0.58100
O4222       O  0.59495699  0.72790410  0.54020103    -0.94800
O4223       O  0.62265778  0.73755758  0.51528065    -0.93200
O4224       O  0.58084417  0.64753853  0.49942997    -0.93600
O4225       O  0.54673946  0.62388393  0.52531440    -0.92400
C4226       C  0.60041929  0.73693597  0.52454605     1.16700
H4227       H  0.65440975  0.67043064  0.50316286     0.32600
H4228       H  0.57632444  0.63844492  0.55981179     0.43500
H4229       H  0.66847705  0.76013219  0.54828718     0.37000
H4230       H  0.70105590  0.67796938  0.56999772     0.33500
H4231       H  0.55698352  0.58133356  0.54129660     0.25300
H4232       H  0.61132983  0.60810683  0.60450808     0.31200
H4233       H  0.69501629  0.70376474  0.59990331     0.37100
H4234       H  0.59828355  0.66690588  0.49509027     0.31600
H4235       H  0.64388561  0.72455611  0.48515428     0.30500
H4236       H  0.71315971  0.78803959  0.51848663     0.32100
H4237       H  0.72959061  0.79351173  0.55634049     0.31100
H4238       H  0.54674053  0.64312049  0.52814869     0.35100
H4239       H  0.54777391  0.67213420  0.56314679     0.27800
H4240       H  0.71993095  0.63498459  0.52458326     0.32100
H4241       H  0.75562864  0.75714595  0.58386340     0.34900
H4242       H  0.67939653  0.73739619  0.48340677     0.27500
H4243       H  0.55928050  0.70476209  0.57142654     0.40400
H4244       H  0.57148966  0.59712593  0.58084763     0.30500
H4245       H  0.55466661  0.57510901  0.52128422     0.38100
H4246       H  0.74161948  0.77613889  0.54471003     0.29900
H4247       H  0.64560762  0.63328461  0.60813453     0.30000
H4248       H  0.73813408  0.65798676  0.53974508     0.30200
C4249       C  0.70165271  0.58090842  0.60131020    -0.02600
C4250       C  0.67093603  0.56146383  0.60726178     0.07100
C4251       C  0.64604502  0.55613138  0.59620906    -0.02700
C4252       C  0.65207038  0.56668715  0.57922240    -0.02700
C4253       C  0.68121846  0.59099371  0.57517441     0.07200
C4254       C  0.70636555  0.59746304  0.58587606    -0.02900
Br4255     Br  0.74655872  0.63044307  0.57965185    -0.01500
Br4256     Br  0.73763860  0.58626926  0.61363279    -0.01600
Br4257     Br  0.61915302  0.55343202  0.56247473    -0.01500
Br4258     Br  0.60387251  0.53858507  0.60411937    -0.01500
C4259       C  0.66778517  0.82917983  0.61248471    -0.02600
C4260       C  0.66310403  0.84871462  0.60153269     0.07100
C4261       C  0.66282757  0.84560560  0.58348223    -0.02700
C4262       C  0.66645625  0.82211541  0.57630427    -0.02700
C4263       C  0.66692527  0.80018398  0.58729695     0.07200
C4264       C  0.66866338  0.80411970  0.60532662    -0.02900
Br4265     Br  0.67120592  0.77479004  0.62011982    -0.01500
Br4266     Br  0.67337778  0.83689127  0.63710194    -0.01600
Br4267     Br  0.67299441  0.82128093  0.55172636    -0.01500
Br4268     Br  0.65553925  0.87218570  0.56878395    -0.01500
C4269       C  0.65845096  0.58396962  0.48193020    -0.02600
C4270       C  0.64463998  0.60248686  0.48276366     0.07100
C4271       C  0.63590922  0.61102716  0.46726030    -0.02700
C4272       C  0.64061366  0.60081607  0.45115091    -0.02700
C4273       C  0.65569140  0.58357675  0.45028924     0.07200
C4274       C  0.66417945  0.57473544  0.46573761    -0.02900
Br4275     Br  0.68441239  0.55061144  0.46482915    -0.01500
Br4276     Br  0.66903815  0.57077066  0.50301181    -0.01600
Br4277     Br  0.62473328  0.60892637  0.43028944    -0.01500
Br4278     Br  0.61978507  0.63879372  0.46764731    -0.01500
C4279       C  0.58255200  0.89620982  0.53794215    -0.02600
C4280       C  0.55090059  0.87517138  0.53587553     0.07100
C4281       C  0.53268245  0.86144160  0.55072199    -0.02700
C4282       C  0.54591657  0.86857411  0.56741526    -0.02700
C4283       C  0.57748254  0.88992715  0.56958894     0.07200
C4284       C  0.59575949  0.90380624  0.55471098    -0.02900
Br4285     Br  0.63888458  0.93384247  0.55717860    -0.01500
Br4286     Br  0.60726317  0.91608184  0.51783113    -0.01600
Br4287     Br  0.51992410  0.85094623  0.58740955    -0.01500
Br4288     Br  0.99294343  0.85432749  0.54586888    -0.01500
C4289       C  0.62720965  0.89760293  0.44349509    -0.02600
C4290       C  0.59941397  0.87289300  0.43737443     0.07100
C4291       C  0.59598084  0.86583691  0.41950297    -0.02700
C4292       C  0.61536696  0.88808968  0.40758928    -0.02700
C4293       C  0.63947716  0.91602794  0.41388001     0.07200
C4294       C  0.64804599  0.91858948  0.43148237    -0.02900
Br4295     Br  0.68664462  0.95291002  0.43903164    -0.01500
Br4296     Br  0.63456182  0.90540430  0.46797035    -0.01600
Br4297     Br  0.60590078  0.88213872  0.38321495    -0.01500
Br4298     Br  0.56168661  0.82762694  0.41154513    -0.01500
C4299       C  0.82654300  0.69418999  0.44526267    -0.02600
C4300       C  0.85112129  0.71101732  0.43368573     0.07100
C4301       C  0.84845251  0.70237938  0.41619928    -0.02700
C4302       C  0.82233872  0.67558935  0.41050517    -0.02700
C4303       C  0.79750143  0.65908447  0.42195469     0.07200
C4304       C  0.79894977  0.66934352  0.43906151    -0.02900
Br4305     Br  0.76337988  0.64897354  0.45390428    -0.01500
Br4306     Br  0.83168456  0.70237244  0.46981425    -0.01600
Br4307     Br  0.82134942  0.66171064  0.38705731    -0.01500
Br4308     Br  0.88054923  0.72762156  0.40004739    -0.01500
C4309       C  0.54011970  0.76258224  0.52416396    -0.02600
C4310       C  0.52180290  0.74669776  0.50971334     0.07100
C4311       C  0.53078729  0.72888289  0.49956543    -0.02700
C4312       C  0.55836791  0.72840209  0.50311700    -0.02700
C4313       C  0.57708016  0.74470618  0.51743379     0.07200
C4314       C  0.56747500  0.76182940  0.52792041    -0.02900
Br4315     Br  0.59233678  0.78546993  0.54738100    -0.01500
Br4316     Br  0.52800386  0.78607581  0.53869371    -0.01600
Br4317     Br  0.56999099  0.70490644  0.48832898    -0.01500
Br4318     Br  0.50418685  0.70402317  0.48095605    -0.01500
C4319       C  0.82656222  0.75700605  0.51557661    -0.02600
C4320       C  0.83503350  0.76248597  0.49788042     0.07100
C4321       C  0.81151855  0.75912716  0.48581935    -0.02700
C4322       C  0.78111168  0.75026493  0.49140624    -0.02700
C4323       C  0.77288230  0.74427536  0.50891844     0.07200
C4324       C  0.79599500  0.74785343  0.52091473    -0.02900
Br4325     Br  0.78577919  0.73964869  0.54507259    -0.01500
Br4326     Br  0.85651429  0.76237034  0.53304032    -0.01600
Br4327     Br  0.74936570  0.74336769  0.47477784    -0.01500
Br4328     Br  0.81845340  0.76402113  0.46102672    -0.01500
C4329       C  0.58615305  0.67263187  0.64972272    -0.02600
C4330       C  0.55392175  0.65977148  0.65110865     0.07100
C4331       C  0.53619997  0.65344216  0.63575948    -0.02700
C4332       C  0.55029677  0.65909935  0.61934164    -0.02700
C4333       C  0.58226698  0.67051426  0.61792570     0.07200
C4334       C  0.60022736  0.67782716  0.63320973    -0.02900
Br4335     Br  0.64435353  0.69582534  0.63152280    -0.01500
Br4336     Br  0.61086694  0.68170057  0.67037243    -0.01600
Br4337     Br  0.52515720  0.64968833  0.59877557    -0.01500
Br4338     Br  0.99167870  0.63465991  0.63584797    -0.01500
C4339       C  0.53862563  0.75656130  0.66609754    -0.02600
C4340       C  0.51855146  0.75327769  0.67979490     0.07100
C4341       C  0.52560782  0.77982583  0.68978427    -0.02700
C4342       C  0.55152739  0.80897156  0.68584072    -0.02700
C4343       C  0.57159375  0.81229536  0.67202348     0.07200
C4344       C  0.56466848  0.78548498  0.66226880    -0.02900
Br4345     Br  0.59155777  0.78777178  0.64370549    -0.01500
Br4346     Br  0.53170010  0.72066869  0.65325653    -0.01600
Br4347     Br  0.55865481  0.84453182  0.69904547    -0.01500
Br4348     Br  0.49942635  0.77610633  0.70910807    -0.01500
C4349       C  0.81824242  0.52973880  0.68380155    -0.02600
C4350       C  0.82902221  0.56097316  0.68809221     0.07100
C4351       C  0.80683721  0.57015028  0.69052975    -0.02700
C4352       C  0.77481562  0.54867843  0.68885634    -0.02700
C4353       C  0.76394596  0.51765460  0.68361224     0.07200
C4354       C  0.78623748  0.50841502  0.68150695    -0.02900
Br4355     Br  0.77197515  0.96222277  0.67674201    -0.01500
Br4356     Br  0.84788304  0.51621538  0.68066393    -0.01600
Br4357     Br  0.74564519  0.56157433  0.69534899    -0.01500
Br4358     Br  0.82036020  0.61208306  0.69710288    -0.01500
C4359       C  0.66020443  0.57006413  0.72316254    -0.02600
C4360       C  0.65446212  0.55262056  0.73839998     0.07100
C4361       C  0.63802161  0.52037695  0.73737486    -0.02700
C4362       C  0.62938545  0.50562207  0.72110650    -0.02700
C4363       C  0.63598896  0.52314696  0.70578856     0.07200
C4364       C  0.65026516  0.55531599  0.70700941    -0.02900
Br4365     Br  0.65471978  0.57909364  0.68655982    -0.01500
Br4366     Br  0.68244101  0.61436831  0.72421009    -0.01600
Br4367     Br  0.60957745  0.46144275  0.72009794    -0.01500
Br4368     Br  0.62541474  0.49639026  0.75831102    -0.01500
C4369       C  0.60727918  0.70164406  0.78237703    -0.02600
C4370       C  0.63252728  0.70008103  0.77570425     0.07100
C4371       C  0.64080148  0.70718002  0.75816944    -0.02700
C4372       C  0.61962191  0.70775129  0.74651692    -0.02700
C4373       C  0.59076300  0.70171456  0.75275417     0.07200
C4374       C  0.58625640  0.70266954  0.77079418    -0.02900
Br4375     Br  0.54921539  0.70096694  0.77945036    -0.01500
Br4376     Br  0.59938421  0.69804664  0.80693962    -0.01600
Br4377     Br  0.62818028  0.71188659  0.72201532    -0.01500
Br4378     Br  0.67963327  0.71259333  0.75002502    -0.01500
C4379       C  0.82066088  0.59625032  0.75016834    -0.02600
C4380       C  0.85011646  0.61786853  0.75697322     0.07100
C4381       C  0.85185387  0.63835396  0.77013770    -0.02700
C4382       C  0.82554296  0.63986129  0.77475080    -0.02700
C4383       C  0.79729094  0.62126767  0.76619567     0.07200
C4384       C  0.79461640  0.59878223  0.75433343    -0.02900
Br4385     Br  0.75517705  0.57170312  0.74364610    -0.01500
Br4386     Br  0.81426999  0.56165694  0.73610176    -0.01600
Br4387     Br  0.82794533  0.66554982  0.79407001    -0.01500
Br4388     Br  0.88926289  0.66229429  0.78343295    -0.01500
C4389       C  0.80667820  0.90377301  0.09515960    -0.02600
C4390       C  0.82663701  0.91443301  0.10949608     0.07100
C4391       C  0.85311830  0.91191520  0.10931355    -0.02700
C4392       C  0.86528613  0.91044142  0.09332991    -0.02700
C4393       C  0.84553609  0.89842077  0.07873099     0.07200
C4394       C  0.81558783  0.89480965  0.07984957    -0.02900
Br4395     Br  0.78883286  0.88325069  0.05993496    -0.01500
Br4396     Br  0.76839077  0.90396700  0.09660863    -0.01600
Br4397     Br  0.90968371  0.93199252  0.09155048    -0.01500
Br4398     Br  0.87675689  0.91935951  0.13033418    -0.01500
C4399       C  0.85067632  0.67501408  0.08172370    -0.02600
C4400       C  0.87019415  0.70415901  0.08892024     0.07100
C4401       C  0.89296307  0.70856552  0.10099817    -0.02700
C4402       C  0.89653574  0.68381835  0.10591008    -0.02700
C4403       C  0.87561281  0.65390197  0.09962747     0.07200
C4404       C  0.85307125  0.64979456  0.08718688    -0.02900
Br4405     Br  0.82728157  0.61047000  0.07606119    -0.01500
Br4406     Br  0.82254454  0.66995573  0.06319736    -0.01600
Br4407     Br  0.93141813  0.69264620  0.12049559    -0.01500
Br4408     Br  0.91950567  0.74897524  0.11074198    -0.01500
C4409       C  0.99521949  0.85252306  0.13458344    -0.02600
C4410       C  0.97603881  0.84653847  0.14920715     0.07100
C4411       C  0.94404611  0.83325604  0.14703057    -0.02700
C4412       C  0.93148664  0.82805478  0.13023492    -0.02700
C4413       C  0.95074835  0.83461852  0.11558805     0.07200
C4414       C  0.98242815  0.84564571  0.11786362    -0.02900
Br4415     Br  0.51008334  0.85849587  0.09781333    -0.01500
Br4416     Br  0.54015283  0.86952810  0.13702779    -0.01600
Br4417     Br  0.88775548  0.81153176  0.12737924    -0.01500
Br4418     Br  0.91769667  0.82323380  0.16704655    -0.01500
C4419       C  0.97624075  0.68290876  0.17792222    -0.02600
C4420       C  0.94726639  0.67732909  0.17160668     0.07100
C4421       C  0.94446069  0.70277311  0.16674856    -0.02700
C4422       C  0.97045724  0.73260009  0.16680964    -0.02700
C4423       C  0.99850407  0.73858789  0.17454044     0.07200
C4424       C  0.00109204  0.71335145  0.18026104    -0.02900
Br4425     Br  0.53831443  0.72269960  0.19396344    -0.01500
Br4426     Br  0.98183014  0.64866873  0.18333044    -0.01600
Br4427     Br  0.96823847  0.76572511  0.15577964    -0.01500
Br4428     Br  0.90437140  0.69695306  0.16115829    -0.01500
C4429       C  0.71558843  0.95311160  0.20332931    -0.02600
C4430       C  0.69201681  0.93613673  0.19074936     0.07100
C4431       C  0.69920506  0.94438322  0.17319539    -0.02700
C4432       C  0.72882599  0.96857673  0.16840716    -0.02700
C4433       C  0.75221964  0.98538015  0.18092491     0.07200
C4434       C  0.74492944  0.97773604  0.19845716    -0.02900
Br4435     Br  0.77589293  0.00048203  0.21579951    -0.01500
Br4436     Br  0.70935900  0.94130274  0.22743941    -0.01600
Br4437     Br  0.73772725  0.97857538  0.14423953    -0.01500
Br4438     Br  0.66864648  0.92282107  0.15546425    -0.01500
C4439       C  0.60179898  0.93436242  0.31663513    -0.02600
C4440       C  0.62483950  0.96545137  0.31732455     0.07100
C4441       C  0.63530986  0.98239724  0.30183697    -0.02700
C4442       C  0.62194485  0.96869003  0.28587892    -0.02700
C4443       C  0.59967933  0.93733370  0.28506130     0.07200
C4444       C  0.58924256  0.92025899  0.30053925    -0.02900
Br4445     Br  0.55784219  0.87754767  0.29988884    -0.01500
Br4446     Br  0.58719271  0.91129312  0.33777792    -0.01600
Br4447     Br  0.63191330  0.99372538  0.26540779    -0.01500
Br4448     Br  0.67065576  0.52093197  0.30335265    -0.01500
C4449       C  0.90833838  0.85609161  0.39911773    -0.02600
C4450       C  0.92682597  0.84231968  0.39981234     0.07100
C4451       C  0.93534346  0.83351814  0.38419346    -0.02700
C4452       C  0.92506399  0.83832392  0.36810425    -0.02700
C4453       C  0.90536571  0.85080001  0.36763807     0.07200
C4454       C  0.89645250  0.85892180  0.38325757    -0.02900
Br4455     Br  0.86637414  0.87236581  0.38332859    -0.01500
Br4456     Br  0.90158565  0.87405329  0.41961053    -0.01600
Br4457     Br  0.93872510  0.82890733  0.34671787    -0.01500
Br4458     Br  0.96049855  0.81435650  0.38464885    -0.01500
C4459       C  0.89148811  0.96000187  0.21151888    -0.02600
C4460       C  0.86685680  0.96065590  0.20292272     0.07100
C4461       C  0.83811927  0.94900450  0.21156386    -0.02700
C4462       C  0.83451155  0.93794926  0.22861670    -0.02700
C4463       C  0.85897802  0.93684968  0.23703524     0.07200
C4464       C  0.88771505  0.94868948  0.22853625    -0.02900
Br4465     Br  0.92305279  0.95187981  0.24061778    -0.01500
Br4466     Br  0.93007765  0.97246306  0.19973030    -0.01600
Br4467     Br  0.79557114  0.92450496  0.24022358    -0.01500
Br4468     Br  0.80282065  0.94786316  0.20056628    -0.01500
C4469       C  0.89741490  0.79155964  0.24036207    -0.02600
C4470       C  0.92470585  0.79395545  0.24677973     0.07100
C4471       C  0.92601669  0.78507079  0.26391005    -0.02700
C4472       C  0.90308713  0.78126973  0.27569673    -0.02700
C4473       C  0.87963970  0.78664630  0.27001026     0.07200
C4474       C  0.87386037  0.78600303  0.25207848    -0.02900
Br4475     Br  0.83592624  0.78291645  0.24418771    -0.01500
Br4476     Br  0.89450767  0.80113749  0.21652861    -0.01600
Br4477     Br  0.90585919  0.77278477  0.29969498    -0.01500
Br4478     Br  0.96060038  0.78117119  0.27144086    -0.01500
C4479       C  0.70097492  0.87154045  0.28047973    -0.02600
C4480       C  0.71991237  0.86731719  0.26849246     0.07100
C4481       C  0.71067664  0.86019932  0.25109240    -0.02700
C4482       C  0.68418240  0.86028873  0.24532656    -0.02700
C4483       C  0.66597756  0.86588122  0.25715648     0.07200
C4484       C  0.67398882  0.87085068  0.27477656    -0.02900
Br4485     Br  0.64713541  0.87514885  0.29111378    -0.01500
Br4486     Br  0.70961825  0.87417199  0.30498341    -0.01600
Br4487     Br  0.67277134  0.85195665  0.22122528    -0.01500
Br4488     Br  0.73294634  0.84812672  0.23540623    -0.01500
C4489       C  0.76661946  0.73603237  0.36391808    -0.02600
C4490       C  0.75958966  0.74186866  0.34717462     0.07100
C4491       C  0.74709236  0.71694664  0.33514499    -0.02700
C4492       C  0.74219720  0.68736724  0.33960028    -0.02700
C4493       C  0.74999015  0.68170487  0.35624456     0.07200
C4494       C  0.76183674  0.70652292  0.36842853    -0.02900
Br4495     Br  0.77365777  0.70117499  0.39135121    -0.01500
Br4496     Br  0.78543833  0.76956962  0.38030994    -0.01600
Br4497     Br  0.72397252  0.65440172  0.32285439    -0.01500
Br4498     Br  0.73800057  0.72395359  0.31189585    -0.01500
C4499       C  0.78708487  0.96060279  0.35065262    -0.02600
C4500       C  0.77908434  0.94743100  0.33388563     0.07100
C4501       C  0.76954400  0.96243431  0.32159962    -0.02700
C4502       C  0.76499118  0.98715381  0.32655937    -0.02700
C4503       C  0.77114505  0.99889365  0.34354353     0.07200
C4504       C  0.78349416  0.98614961  0.35529083    -0.02900
Br4505     Br  0.79560338  0.00416986  0.37800547    -0.01500
Br4506     Br  0.80466628  0.94488293  0.36708921    -0.01600
Br4507     Br  0.74801253  0.00394197  0.31032784    -0.01500
Br4508     Br  0.76216925  0.95000705  0.29751920    -0.01500
C4509       C  0.90436674  0.56429526  0.79346872    -0.02600
C4510       C  0.92556801  0.55952878  0.78383577     0.07100
C4511       C  0.94049519  0.54542809  0.79199627    -0.02700
C4512       C  0.93323515  0.53505915  0.80927077    -0.02700
C4513       C  0.90951965  0.53702090  0.81845846     0.07200
C4514       C  0.89631826  0.55329656  0.81054980    -0.02900
Br4515     Br  0.86698045  0.56139032  0.82240381    -0.01500
Br4516     Br  0.88695953  0.58728591  0.78359178    -0.01600
Br4517     Br  0.95794653  0.52022978  0.82035541    -0.01500
Br4518     Br  0.96982125  0.53853999  0.77919786    -0.01500
C4519       C  0.74552443  0.50964378  0.85186111    -0.02600
C4520       C  0.76051086  0.49982454  0.83986000     0.07100
C4521       C  0.76948073  0.51512992  0.82384214    -0.02700
C4522       C  0.76510871  0.54037083  0.82023593    -0.02700
C4523       C  0.75063853  0.55055406  0.83234944     0.07200
C4524       C  0.74047499  0.53453233  0.84813277    -0.02900
Br4525     Br  0.71946750  0.54663643  0.86464139    -0.01500
Br4526     Br  0.73188318  0.48882088  0.87365403    -0.01600
Br4527     Br  0.78125431  0.56256044  0.79893345    -0.01500
Br4528     Br  0.78905858  0.50197857  0.80699207    -0.01500
C4529       C  0.74202074  0.75461743  0.85717790    -0.02600
C4530       C  0.76155445  0.74968687  0.84599845     0.07100
C4531       C  0.78494299  0.77539511  0.83716817    -0.02700
C4532       C  0.78854464  0.80510750  0.83939772    -0.02700
C4533       C  0.76794674  0.80966315  0.84988370     0.07200
C4534       C  0.74482472  0.78401987  0.85886193    -0.02900
Br4535     Br  0.71653829  0.78931077  0.87348942    -0.01500
Br4536     Br  0.71029999  0.72037058  0.86973587    -0.01600
Br4537     Br  0.82249374  0.83999468  0.82853136    -0.01500
Br4538     Br  0.81173099  0.76956128  0.82159828    -0.01500
C4539       C  0.84738907  0.90640856  0.96352820    -0.02600
C4540       C  0.85335393  0.89480437  0.94813917     0.07100
C4541       C  0.86714345  0.87635809  0.94924664    -0.02700
C4542       C  0.87550441  0.87011604  0.96547297    -0.02700
C4543       C  0.87105245  0.88306396  0.98076743     0.07200
C4544       C  0.85653213  0.90087957  0.97973416    -0.02900
Br4545     Br  0.85025091  0.91883238  0.00046838    -0.01500
Br4546     Br  0.82585657  0.92927549  0.96259557    -0.01600
Br4547     Br  0.89163584  0.84236735  0.96651286    -0.01500
Br4548     Br  0.87652948  0.86100762  0.92852095    -0.01500
C4549       C  0.93155914  0.58922004  0.05695186    -0.02600
C4550       C  0.94975563  0.59721304  0.07213453     0.07100
C4551       C  0.98207095  0.61408733  0.07079105    -0.02700
C4552       C  0.99609123  0.62346597  0.05445051    -0.02700
C4553       C  0.97793288  0.61458993  0.03916716     0.07200
C4554       C  0.94562583  0.59714597  0.04051914    -0.02900
Br4555     Br  0.92078390  0.58177334  0.01987553    -0.01500
Br4556     Br  0.88721935  0.56772397  0.05860632    -0.01600
Br4557     Br  0.53966638  0.66386815  0.05387159    -0.01500
Br4558     Br  0.00735420  0.62211372  0.09116369    -0.01500
C4559       C  0.62972926  0.64003480  0.90405106    -0.02600
C4560       C  0.60614669  0.64745706  0.90596967     0.07100
C4561       C  0.59454046  0.65486318  0.89111374    -0.02700
C4562       C  0.60578693  0.65389832  0.87451786    -0.02700
C4563       C  0.62836498  0.64531433  0.87268345     0.07200
C4564       C  0.64090360  0.63922107  0.88748614    -0.02900
Br4565     Br  0.67406208  0.63029239  0.88520950    -0.01500
Br4566     Br  0.64575891  0.62905398  0.92385802    -0.01600
Br4567     Br  0.59000560  0.66375490  0.85422092    -0.01500
Br4568     Br  0.56385901  0.66725715  0.89321219    -0.01500
C4569       C  0.91165478  0.59988573  0.91033022    -0.02600
C4570       C  0.88902788  0.57140127  0.91682234     0.07100
C4571       C  0.88307112  0.56800834  0.93480475    -0.02700
C4572       C  0.90481636  0.58944213  0.94636130    -0.02700
C4573       C  0.93105046  0.61509989  0.93973211     0.07200
C4574       C  0.93230609  0.62221351  0.92197731    -0.02900
Br4575     Br  0.96470598  0.66099187  0.91353699    -0.01500
Br4576     Br  0.91755544  0.60677990  0.88572591    -0.01600
Br4577     Br  0.90146533  0.58078035  0.97080352    -0.01500
Br4578     Br  0.84694469  0.53223307  0.94351499    -0.01500
C4579       C  0.66664706  0.78923797  0.91450222    -0.02600
C4580       C  0.67004918  0.77161205  0.92757579     0.07100
C4581       C  0.70005167  0.78123121  0.93424265    -0.02700
C4582       C  0.72489433  0.80999999  0.92967091    -0.02700
C4583       C  0.72032069  0.82884999  0.91810617     0.07200
C4584       C  0.69130720  0.81820712  0.91029395    -0.02900
Br4585     Br  0.68532265  0.84259905  0.89316099    -0.01500
Br4586     Br  0.62945258  0.77251326  0.90075756    -0.01600
Br4587     Br  0.76516213  0.82443820  0.93989885    -0.01500
Br4588     Br  0.70887943  0.75550239  0.94891870    -0.01500
C4589       C  0.98208054  0.72600758  0.02576178    -0.02600
C4590       C  0.00309900  0.74301770  0.01257666     0.07100
C4591       C  0.99749180  0.76333892  0.00269880    -0.02700
C4592       C  0.97117282  0.76633269  0.00576084    -0.02700
C4593       C  0.94927581  0.74825390  0.01841812     0.07200
C4594       C  0.95536149  0.72840003  0.02859066    -0.02900
Br4595     Br  0.92718834  0.70467726  0.04683113    -0.01500
Br4596     Br  0.98965760  0.69865907  0.03965393    -0.01600
Br4597     Br  0.96667142  0.79723816  0.99360951    -0.01500
Br4598     Br  0.02666987  0.78756806  0.98501393    -0.01500
C4599       C  0.74932025  0.77444774  0.99709717    -0.02600
C4600       C  0.75784851  0.75386156  0.00435761     0.07100
C4601       C  0.73407527  0.72476640  0.00953289    -0.02700
C4602       C  0.70261129  0.71683652  0.00788012    -0.02700
C4603       C  0.69430428  0.73832223  0.00170193     0.07200
C4604       C  0.71813116  0.76726274  0.99645852    -0.02900
Br4605     Br  0.70774927  0.79707544  0.98811482    -0.01500
Br4606     Br  0.78078898  0.81264950  0.98745693    -0.01600
Br4607     Br  0.67069106  0.67650651  0.01449040    -0.01500
Br4608     Br  0.74483001  0.69604692  0.01909055    -0.01500
loop_ 
_geom_bond_atom_site_label_1 
_geom_bond_atom_site_label_2 
_geom_bond_distance 
_geom_bond_site_symmetry_2 
_ccdc_geom_bond_type 
Zr1           O9   2.374       .  S
Zr1          O10   2.402   1_556  S
Zr1          O11   2.415       .  S
Zr1          O12   2.407       .  S
Zr1        O2306   2.446   1_455  S
Zr1        O2307   2.464   1_456  S
Zr1        O2308   2.430   1_455  S
Zr1        O2311   2.383       .  S
O2        Zr2305   2.443       .  S
O2           H58   0.990   1_556  S
O2           H66   0.990       .  S
O3        Zr2305   2.473   1_554  S
O3           C23   1.290       .  A
O4        Zr2305   2.441       .  S
O4           C25   1.282       .  A
O5          Zr15   2.556   1_554  S
O5           C24   1.304       .  A
O6        Zr2318   2.413       .  S
O6           C25   1.278       .  A
O7        Zr2305   2.387       .  S
O7         C2328   1.268   1_556  A
O8          Zr16   2.416   1_554  S
O8         C2327   1.280   1_455  A
O9          Zr14   2.391       .  S
O9          Zr16   2.388       .  S
O10         Zr15   2.386   1_554  S
O10         Zr16   2.396   1_554  S
O10          H45   0.959       .  S
O11         Zr14   2.400       .  S
O11         Zr31   2.410       .  S
O11          H48   0.965       .  S
O12         Zr15   2.384       .  S
O12         Zr31   2.377       .  S
Zr13         O19   2.403       .  S
Zr13         O20   2.389       .  S
Zr13         O21   2.361       .  S
Zr13         O22   2.395       .  S
Zr13         O38   2.437       .  S
Zr13         O32   2.398       .  S
Zr13         O40   2.396       .  S
Zr13         O28   2.440       .  S
Zr14         O20   2.382       .  S
Zr14         O21   2.380       .  S
Zr14         O33   2.443       .  S
Zr14         O26   2.436       .  S
Zr14         O27   2.441       .  S
Zr14       O2310   2.410   1_455  S
Zr15         O19   2.411       .  S
Zr15         O22   2.391       .  S
Zr15         O17   2.436       .  S
Zr15         O39   2.437   1_556  S
Zr15         O41   2.519   1_556  S
Zr16         O19   2.389       .  S
Zr16         O20   2.406       .  S
Zr16         O42   2.436   1_556  S
Zr16         O43   2.437       .  S
Zr16         O18   2.439       .  S
O17          H54   0.990       .  S
O18          H49   0.991   1_556  S
O18          H63   0.989   1_455  S
O20          H46   0.971       .  S
O21         Zr31   2.359       .  S
O22         Zr31   2.375       .  S
O22          H47   0.965       .  S
C23        O2312   1.280       .  A
C23        C1097   1.481       .  S
C24        O2311   1.268   1_554  A
C24        C3438   1.499   1_455  S
C25        C1117   1.465       .  S
O26          H62   0.990   1_455  S
O27          C29   1.285       .  A
O28          C29   1.286       .  A
C29        C1104   1.488       .  S
O30         Zr31   2.437       .  S
O30          H59   0.990       .  S
Zr31         O34   2.431       .  S
Zr31         O35   2.438       .  S
Zr31         O36   2.441       .  S
O32          C37   1.276       .  A
O33          H50   0.990   1_455  S
O33          H65   0.991       .  S
O34          H51   0.990       .  S
O35          H55   0.990       .  S
O35          H64   0.990       .  S
O36          C37   1.286       .  A
C37        C1124   1.484       .  S
O38          H57   0.988       .  S
O38          H61   0.990       .  S
O39          H53   0.990       .  S
O39          H60   0.990       .  S
O40          C44   1.278       .  A
O41          C44   1.303   1_554  A
O42          H52   0.990       .  S
O43          H56   0.989       .  S
C44        C1147   1.496   1_556  S
Zr67       O1227   2.377   1_545  S
Zr67       O1228   2.398   1_545  S
Zr67       O1229   2.421   1_545  S
Zr67       O1230   2.419   1_545  S
Zr67         O68   2.447       .  S
Zr67         O69   2.488       .  S
Zr67         O70   2.463       .  S
Zr67         O73   2.385       .  S
O68         H124   0.990       .  S
O68         H132   0.991       .  S
O69          C89   1.292       .  A
O70          C91   1.284       .  A
O71         Zr81   2.585       .  S
O71          C90   1.316       .  A
O72       Zr1232   2.396   1_545  S
O72          C91   1.274       .  A
O73        C1242   1.273   1_545  A
O74       Zr1234   2.423       .  S
O74          C89   1.280   1_565  A
O75         Zr80   2.394       .  S
O75         Zr82   2.391       .  S
O75       Zr1219   2.370       .  S
O76         Zr81   2.392       .  S
O76         Zr82   2.399       .  S
O76       Zr1219   2.395       .  S
O76         H111   0.963       .  S
O77         Zr80   2.400       .  S
O77         Zr97   2.407       .  S
O77       Zr1219   2.420       .  S
O77         H114   0.963       .  S
O78         Zr81   2.390       .  S
O78         Zr97   2.380       .  S
O78       Zr1219   2.413       .  S
Zr79         O85   2.401       .  S
Zr79         O86   2.390       .  S
Zr79         O87   2.365       .  S
Zr79         O88   2.397       .  S
Zr79        O104   2.441       .  S
Zr79         O98   2.405       .  S
Zr79        O106   2.388       .  S
Zr79         O94   2.453       .  S
Zr80         O86   2.380       .  S
Zr80         O87   2.387       .  S
Zr80         O99   2.447       .  S
Zr80         O92   2.432       .  S
Zr80         O93   2.405       .  S
Zr80       O1224   2.397       .  S
Zr81         O85   2.405       .  S
Zr81         O88   2.381       .  S
Zr81         O83   2.432       .  S
Zr81        O105   2.437       .  S
Zr81        O107   2.573       .  S
Zr82         O85   2.390       .  S
Zr82         O86   2.408       .  S
Zr82        O108   2.431       .  S
Zr82        O109   2.436       .  S
Zr82         O84   2.441       .  S
Zr82       O1226   2.405       .  S
O83         H120   0.990       .  S
O84         H115   0.990       .  S
O84         H129   0.990       .  S
O86         H112   0.963       .  S
O87         Zr97   2.372       .  S
O88         Zr97   2.371       .  S
O88         H113   0.965       .  S
C89        C1057   1.514       .  S
C90        O1225   1.269       .  A
C90        C2216   1.516       .  S
C91        C1114   1.473       .  S
O92         H128   0.990       .  S
O93          C95   1.277       .  A
O94          C95   1.288       .  A
C95        C1084   1.479       .  S
O96         Zr97   2.438       .  S
O96         H125   0.989       .  S
Zr97        O100   2.432       .  S
Zr97        O101   2.443       .  S
Zr97        O102   2.430       .  S
O98         C103   1.280       .  A
O99         H116   0.991       .  S
O99         H131   0.990       .  S
O100        H117   0.990       .  S
O101        H121   0.988       .  S
O101        H130   0.991       .  S
O102        C103   1.283       .  A
C103       C1127   1.465       .  S
O104        H123   0.991       .  S
O104        H127   0.988       .  S
O105        H119   0.990       .  S
O105        H126   0.990       .  S
O106        C110   1.277       .  A
O107        C110   1.314       .  A
O108        H118   0.990       .  S
O109        H122   0.990       .  S
C110       C1077   1.518       .  S
Zr133       O141   2.378       .  S
Zr133       O142   2.404       .  S
Zr133       O143   2.413       .  S
Zr133       O144   2.407       .  S
Zr133       O134   2.450       .  S
Zr133       O135   2.451       .  S
Zr133       O136   2.451       .  S
Zr133       O139   2.380       .  S
O134        H190   0.990       .  S
O134        H198   0.990       .  S
O135        C155   1.285       .  A
O136        C157   1.281       .  A
O137       Zr147   2.567       .  S
O137        C156   1.312       .  A
O138       Zr146   2.393       .  S
O138        C157   1.276       .  A
O139        C156   1.273       .  A
O140       Zr148   2.416       .  S
O140        C155   1.281       .  A
O141       Zr146   2.393       .  S
O141       Zr148   2.385       .  S
O142       Zr147   2.396       .  S
O142       Zr148   2.397       .  S
O142        H177   0.962       .  S
O143       Zr146   2.404       .  S
O143       Zr163   2.387       .  S
O143        H180   0.964       .  S
O144       Zr147   2.392       .  S
O144       Zr163   2.384       .  S
Zr145       O151   2.400       .  S
Zr145       O152   2.389       .  S
Zr145       O153   2.359       .  S
Zr145       O154   2.395       .  S
Zr145       O170   2.449       .  S
Zr145       O164   2.425       .  S
Zr145       O172   2.364       .  S
Zr145       O160   2.431       .  S
Zr146       O152   2.376       .  S
Zr146       O153   2.387       .  S
Zr146       O165   2.439       .  S
Zr146       O158   2.434       .  S
Zr146       O159   2.416       .  S
Zr147       O151   2.398       .  S
Zr147       O154   2.378       .  S
Zr147       O149   2.434       .  S
Zr147       O171   2.435       .  S
Zr147       O173   2.572       .  S
Zr148       O151   2.394       .  S
Zr148       O152   2.402       .  S
Zr148       O174   2.433       .  S
Zr148       O175   2.436       .  S
Zr148       O150   2.438       .  S
O149        H186   0.990       .  S
O150        H181   0.991       .  S
O150        H195   0.989       .  S
O152        H178   0.970       .  S
O153       Zr163   2.368       .  S
O154       Zr163   2.382       .  S
O154        H179   0.960       .  S
C155        C997   1.483       .  S
C156       C1034   1.506       .  S
C157       C1017   1.464       .  S
O158        H194   0.990       .  S
O159        C161   1.279       .  A
O160        C161   1.282       .  A
C161       C1007   1.488       .  S
O162       Zr163   2.439       .  S
O162        H191   0.990       .  S
Zr163       O166   2.437       .  S
Zr163       O167   2.440       .  S
Zr163       O168   2.414       .  S
O164        C169   1.283       .  A
O165        H182   0.991       .  S
O165        H197   0.989       .  S
O166        H183   0.990       .  S
O167        H187   0.990       .  S
O167        H196   0.990       .  S
O168        C169   1.279       .  A
C169       C1024   1.456       .  S
O170        H189   0.990       .  S
O170        H193   0.990       .  S
O171        H185   0.990       .  S
O171        H192   0.990       .  S
O172        C176   1.270       .  A
O173        C176   1.314       .  A
O174        H184   0.989       .  S
O175        H188   0.990       .  S
C176       C1044   1.521       .  S
Zr199       O207   2.380       .  S
Zr199       O208   2.397       .  S
Zr199       O209   2.415       .  S
Zr199       O210   2.398       .  S
Zr199      O2504   2.443   1_455  S
Zr199      O2505   2.456   1_455  S
Zr199      O2506   2.431   1_455  S
Zr199      O2509   2.389       .  S
O200      Zr2503   2.447       .  S
O200        H256   0.989       .  S
O200        H264   0.991       .  S
O201      Zr2503   2.456       .  S
O201        C221   1.286       .  A
O202      Zr2503   2.420       .  S
O202        C223   1.277       .  A
O203       Zr213   2.557       .  S
O203        C222   1.307       .  A
O204      Zr2516   2.426       .  S
O204        C223   1.282       .  A
O205      Zr2503   2.385       .  S
O205       C2526   1.271       .  A
O206       Zr214   2.426       .  S
O206       C2525   1.283   1_455  A
O207       Zr212   2.407       .  S
O207       Zr214   2.389       .  S
O208       Zr213   2.389       .  S
O208       Zr214   2.397       .  S
O208        H243   0.960       .  S
O209       Zr212   2.400       .  S
O209       Zr229   2.390       .  S
O209        H246   0.962       .  S
O210       Zr213   2.390       .  S
O210       Zr229   2.377       .  S
Zr211       O217   2.402       .  S
Zr211       O218   2.385       .  S
Zr211       O220   2.387       .  S
Zr211       O236   2.445       .  S
Zr211       O230   2.400       .  S
Zr211       O238   2.375       .  S
Zr211       O226   2.420       .  S
Zr211       O219   2.292       .  S
Zr212       O218   2.374       .  S
Zr212       O231   2.449       .  S
Zr212       O224   2.449       .  S
Zr212       O225   2.426       .  S
Zr212      O2508   2.407   1_455  S
Zr212       O219   2.311       .  S
Zr213       O217   2.402       .  S
Zr213       O220   2.373       .  S
Zr213       O215   2.438       .  S
Zr213       O237   2.435       .  S
Zr213       O239   2.558       .  S
Zr214       O217   2.394       .  S
Zr214       O218   2.412       .  S
Zr214       O240   2.435       .  S
Zr214       O241   2.437       .  S
Zr214       O216   2.441       .  S
O215        H252   0.990       .  S
O216        H247   0.991       .  S
O216        H261   0.990   1_455  S
O218        H244   0.963       .  S
O219       Zr229   2.302       .  S
O220       Zr229   2.373       .  S
O220        H245   0.965       .  S
C221       O2510   1.283       .  A
C221        C954   1.479       .  S
C222       O2509   1.273       .  A
C222       C3271   1.502   1_455  S
C223       C1014   1.456       .  S
O224        H260   0.991   1_455  S
O225        C227   1.282       .  A
O226        C227   1.283       .  A
C227        C987   1.484       .  S
O228       Zr229   2.449       .  S
O228        H257   0.991       .  S
Zr229       O232   2.429       .  S
Zr229       O233   2.449       .  S
Zr229       O234   2.413       .  S
O230        C235   1.278       .  A
O231        H248   0.991   1_455  S
O231        H263   0.990       .  S
O232        H249   0.990       .  S
O233        H253   0.990       .  S
O233        H262   0.990       .  S
O234        C235   1.281       .  A
C235       C1027   1.449       .  S
O236        H255   0.990       .  S
O236        H259   0.990       .  S
O237        H251   0.990       .  S
O237        H258   0.990       .  S
O238        C242   1.272       .  A
O239        C242   1.311       .  A
O240        H250   0.990       .  S
O241        H254   0.990       .  S
C242        C974   1.521       .  S
Zr265      O1425   2.368       .  S
Zr265      O1426   2.392       .  S
Zr265      O1427   2.413       .  S
Zr265      O1428   2.398       .  S
Zr265       O266   2.453       .  S
Zr265       O267   2.439       .  S
Zr265       O268   2.408       .  S
Zr265       O271   2.355       .  S
O266        H322   0.991       .  S
O266        H330   0.991       .  S
O267        C287   1.281       .  A
O268        C289   1.271       .  A
O269       Zr279   2.553       .  S
O269       C1440   1.309       .  A
O270      Zr1430   2.396       .  S
O270        C289   1.278       .  A
O271        C288   1.268       .  A
O272      Zr1432   2.420       .  S
O272        C287   1.280       .  A
O273       Zr278   2.395       .  S
O273       Zr280   2.381       .  S
O273      Zr1417   2.369   1_545  S
O274       Zr279   2.397       .  S
O274       Zr280   2.395       .  S
O274      Zr1417   2.394   1_545  S
O274        H309   0.969       .  S
O275       Zr278   2.408       .  S
O275       Zr295   2.403       .  S
O275      Zr1417   2.412   1_545  S
O275        H312   0.965   1_545  S
O276       Zr279   2.393       .  S
O276       Zr295   2.376       .  S
O276      Zr1417   2.397   1_545  S
Zr277       O283   2.407       .  S
Zr277       O284   2.390       .  S
Zr277       O285   2.354       .  S
Zr277       O286   2.397       .  S
Zr277       O302   2.440       .  S
Zr277       O296   2.398       .  S
Zr277       O304   2.356       .  S
Zr277       O292   2.443       .  S
Zr278       O284   2.384       .  S
Zr278       O285   2.371       .  S
Zr278       O297   2.444       .  S
Zr278       O290   2.437       .  S
Zr278       O291   2.436       .  S
Zr278      O1422   2.394   1_545  S
Zr279       O283   2.402       .  S
Zr279       O286   2.382       .  S
Zr279       O281   2.435       .  S
Zr279       O303   2.437       .  S
Zr279       O305   2.555       .  S
Zr280       O283   2.398       .  S
Zr280       O284   2.419       .  S
Zr280       O306   2.436       .  S
Zr280       O307   2.439       .  S
Zr280       O282   2.438       .  S
Zr280      O1424   2.434       .  S
O281        H318   0.990       .  S
O282        H313   0.990       .  S
O282        H327   0.990   1_545  S
O284        H310   0.961       .  S
O285       Zr295   2.360       .  S
O286       Zr295   2.380       .  S
O286        H311   0.964       .  S
C287       C1004   1.485       .  S
C288       O1421   1.310       .  A
C288        C977   1.501       .  S
C289        C934   1.446       .  S
O290       H1478   0.990       .  S
O291        C293   1.284       .  A
O292        C293   1.286       .  A
C293       C1094   1.484       .  S
O294       Zr295   2.436       .  S
O294        H323   0.990       .  S
Zr295       O298   2.434       .  S
Zr295       O299   2.440       .  S
Zr295       O300   2.426       .  S
O296        C301   1.276       .  A
O297        H314   0.991   1_545  S
O297        H329   0.990   1_545  S
O298        H315   0.990       .  S
O299        H319   0.990       .  S
O299        H328   0.990       .  S
O300        C301   1.279       .  A
C301        C947   1.489       .  S
O302        H321   0.990       .  S
O302        H325   0.989       .  S
O303        H317   0.990       .  S
O303        H324   0.990       .  S
O304        C308   1.271       .  A
O305        C308   1.310       .  A
O306        H316   0.990       .  S
O307        H320   0.990       .  S
C308        C964   1.499       .  S
H326       O1442   0.990       .  S
Zr331       O339   2.371       .  S
Zr331       O340   2.397       .  S
Zr331       O341   2.414       .  S
Zr331       O342   2.405       .  S
Zr331       O332   2.442       .  S
Zr331       O333   2.440       .  S
Zr331       O334   2.445       .  S
Zr331       O337   2.388       .  S
O332        H388   0.989       .  S
O332        H396   0.991       .  S
O333        C353   1.284   1_554  A
O334        C355   1.277       .  A
O335       Zr345   2.542       .  S
O335        C354   1.306       .  A
O336       Zr344   2.397       .  S
O336        C355   1.267       .  A
O337        C354   1.276       .  A
O338       Zr346   2.421       .  S
O338        C353   1.281   1_554  A
O339       Zr344   2.391       .  S
O339       Zr346   2.370       .  S
O340       Zr345   2.379       .  S
O340       Zr346   2.394       .  S
O340        H375   0.962       .  S
O341       Zr344   2.398       .  S
O341       Zr361   2.402       .  S
O341        H378   0.965       .  S
O342       Zr345   2.396       .  S
O342       Zr361   2.384       .  S
Zr343       O349   2.399       .  S
Zr343       O350   2.380       .  S
Zr343       O351   2.343       .  S
Zr343       O352   2.400       .  S
Zr343       O368   2.440       .  S
Zr343       O362   2.388       .  S
Zr343       O370   2.372       .  S
Zr343       O358   2.457       .  S
Zr344       O350   2.376       .  S
Zr344       O351   2.371       .  S
Zr344       O363   2.440       .  S
Zr344       O356   2.436       .  S
Zr344       O357   2.404       .  S
Zr345       O349   2.398       .  S
Zr345       O352   2.385       .  S
Zr345       O347   2.433       .  S
Zr345       O369   2.438   1_554  S
Zr345       O371   2.537       .  S
Zr346       O349   2.386       .  S
Zr346       O350   2.404       .  S
Zr346       O372   2.433   1_554  S
Zr346       O373   2.436       .  S
Zr346       O348   2.439       .  S
O347        H384   0.990       .  S
O348        H379   0.990       .  S
O348        H393   0.990       .  S
O350        H376   0.964       .  S
O351       Zr361   2.358       .  S
O352       Zr361   2.381       .  S
O352        H377   0.964       .  S
C353       C1087   1.474       .  S
C354       C1144   1.499       .  S
C355        C937   1.481       .  S
O356        H392   0.990       .  S
O357        C359   1.279       .  A
O358        C359   1.289       .  A
C359        C957   1.472       .  S
O360       Zr361   2.438       .  S
O360        H389   0.990       .  S
Zr361       O364   2.434       .  S
Zr361       O365   2.435       .  S
Zr361       O366   2.440       .  S
O362        C367   1.277       .  A
O363        H380   0.990       .  S
O363        H395   0.989       .  S
O364        H381   0.990       .  S
O365        H385   0.990       .  S
O365        H394   0.989       .  S
O366        C367   1.285       .  A
C367        C944   1.470       .  S
O368        H387   0.990       .  S
O368        H391   0.988       .  S
O369        H383   0.990       .  S
O369        H390   0.990       .  S
O370        C374   1.274       .  A
O371        C374   1.307       .  A
O372        H382   0.990       .  S
O373        H386   0.990       .  S
C374       C1137   1.502       .  S
Zr397       O405   2.383       .  S
Zr397       O406   2.401       .  S
Zr397       O407   2.422       .  S
Zr397       O408   2.407       .  S
Zr397       O398   2.442       .  S
Zr397       O399   2.482       .  S
Zr397       O400   2.445       .  S
Zr397       O403   2.396       .  S
O398        H454   0.989       .  S
O398        H462   0.991       .  S
O399        C419   1.292       .  A
O400        C421   1.283       .  A
O401       Zr411   2.580       .  S
O401        C420   1.312       .  A
O402       Zr410   2.411       .  S
O402        C421   1.279       .  A
O403        C420   1.271       .  A
O404       Zr412   2.412       .  S
O404        C419   1.280       .  A
O405       Zr410   2.392       .  S
O405       Zr412   2.394       .  S
O406       Zr411   2.384       .  S
O406       Zr412   2.396       .  S
O406        H441   0.961       .  S
O407       Zr410   2.399       .  S
O407       Zr427   2.397       .  S
O407        H444   0.961       .  S
O408       Zr411   2.387       .  S
O408       Zr427   2.379       .  S
Zr409       O415   2.403       .  S
Zr409       O416   2.391       .  S
Zr409       O417   2.364       .  S
Zr409       O418   2.397       .  S
Zr409       O434   2.444       .  S
Zr409       O428   2.408       .  S
Zr409       O436   2.380       .  S
Zr409       O424   2.440       .  S
Zr410       O416   2.378       .  S
Zr410       O417   2.383       .  S
Zr410       O429   2.439       .  S
Zr410       O422   2.437       .  S
Zr410       O423   2.435       .  S
Zr411       O415   2.406       .  S
Zr411       O418   2.378       .  S
Zr411       O413   2.435       .  S
Zr411       O435   2.434       .  S
Zr411       O437   2.560       .  S
Zr412       O415   2.389       .  S
Zr412       O416   2.405       .  S
Zr412       O438   2.440       .  S
Zr412       O439   2.438       .  S
Zr412       O414   2.439       .  S
O413        H450   0.990       .  S
O414        H445   0.990       .  S
O414        H459   0.990       .  S
O416        H442   0.962       .  S
O417       Zr427   2.367       .  S
O418       Zr427   2.378       .  S
O418        H443   0.960       .  S
C419       C1107   1.488       .  S
C420       C1074   1.514       .  S
C421        C914   1.466       .  S
O422        H458   0.990       .  S
O423        C425   1.283       .  A
O424        C425   1.286       .  A
C425        C904   1.484       .  S
O426       Zr427   2.435       .  S
O426        H455   0.990       .  S
Zr427       O430   2.437       .  S
Zr427       O431   2.434       .  S
Zr427       O432   2.425       .  S
O428        C433   1.280       .  A
O429        H446   0.990       .  S
O429        H461   0.990       .  S
O430        H447   0.990       .  S
O431        H451   0.990       .  S
O431        H460   0.989       .  S
O432        C433   1.283       .  A
C433        C927   1.463       .  S
O434        H453   0.990       .  S
O434        H457   0.988       .  S
O435        H449   0.990       .  S
O435        H456   0.990       .  S
O436        C440   1.275       .  A
O437        C440   1.312       .  A
O438        H448   0.990       .  S
O439        H452   0.990       .  S
C440       C1067   1.519       .  S
Zr463      O2775   2.380       .  S
Zr463      O2776   2.399   1_455  S
Zr463      O2777   2.416   1_455  S
Zr463      O2778   2.411   1_455  S
Zr463       O464   2.444       .  S
Zr463       O465   2.476       .  S
Zr463       O466   2.449       .  S
Zr463       O469   2.392       .  S
O464        H520   0.990       .  S
O464        H528   0.991       .  S
O465        C485   1.290       .  A
O466        C487   1.284       .  A
O467       Zr477   2.553       .  S
O467       C2790   1.304       .  A
O468      Zr2780   2.395   1_455  S
O468        C487   1.275       .  A
O469        C486   1.269   1_455  A
O470      Zr2782   2.421   1_455  S
O470        C485   1.281       .  A
O471       Zr476   2.395       .  S
O471       Zr478   2.389       .  S
O471      Zr2767   2.384       .  S
O472       Zr477   2.384       .  S
O472       Zr478   2.386       .  S
O472      Zr2767   2.402       .  S
O472        H507   0.961       .  S
O473       Zr476   2.405       .  S
O473       Zr493   2.402       .  S
O473      Zr2767   2.416       .  S
O473       H2814   0.965       .  S
O474       Zr477   2.391       .  S
O474       Zr493   2.380       .  S
O474      Zr2767   2.413       .  S
Zr475       O481   2.412       .  S
Zr475       O482   2.395       .  S
Zr475       O483   2.360       .  S
Zr475       O484   2.404       .  S
Zr475       O500   2.438       .  S
Zr475       O494   2.414       .  S
Zr475       O502   2.379       .  S
Zr475       O490   2.463       .  S
Zr476       O482   2.384       .  S
Zr476       O483   2.384       .  S
Zr476       O495   2.442       .  S
Zr476       O488   2.435       .  S
Zr476       O489   2.436       .  S
Zr476      O2772   2.414       .  S
Zr477       O481   2.402       .  S
Zr477       O484   2.380       .  S
Zr477       O479   2.437       .  S
Zr477       O501   2.436       .  S
Zr477       O503   2.544       .  S
Zr478       O481   2.392       .  S
Zr478       O482   2.411       .  S
Zr478       O504   2.437       .  S
Zr478       O505   2.435       .  S
Zr478       O480   2.435       .  S
Zr478      O2774   2.429       .  S
O479        H516   0.989       .  S
O480        H511   0.991       .  S
O480       H2829   0.990       .  S
O482        H508   0.969       .  S
O483       Zr493   2.361       .  S
O484       Zr493   2.379       .  S
O484        H509   0.962       .  S
C485        C874   1.486       .  S
C486       O2771   1.308       .  A
C486        C884   1.514   1_655  S
C487        C917   1.462       .  S
O488       H2828   0.990       .  S
O489        C491   1.284       .  A
O490        C491   1.290       .  A
C491       C1054   1.500       .  S
O492       Zr493   2.437       .  S
O492        H521   0.990       .  S
Zr493       O496   2.437       .  S
Zr493       O497   2.439       .  S
Zr493       O498   2.430       .  S
O494        C499   1.279       .  A
O495        H512   0.990       .  S
O495        H527   0.991       .  S
O496        H513   0.990       .  S
O497        H517   0.990       .  S
O497        H526   0.990       .  S
O498        C499   1.285       .  A
C499        C924   1.484       .  S
O500        H519   0.990       .  S
O500        H523   0.990       .  S
O501        H515   0.990       .  S
O501        H522   0.990       .  S
O502        C506   1.276       .  A
O503        C506   1.308       .  A
O504        H514   0.991       .  S
O505        H518   0.990       .  S
C506        C894   1.503       .  S
H510       O2777   0.965   1_455  S
H524       O2792   0.990       .  S
H525       O2784   0.990       .  S
Zr529      O2841   2.380       .  S
Zr529      O2842   2.402   1_455  S
Zr529      O2843   2.422       .  S
Zr529      O2844   2.408   1_455  S
Zr529       O530   2.445       .  S
Zr529       O531   2.473       .  S
Zr529       O532   2.443       .  S
Zr529       O535   2.374       .  S
O530        H586   0.990       .  S
O530        H594   0.990       .  S
O531        C551   1.291       .  A
O532        C553   1.282       .  A
O533       Zr543   2.571       .  S
O533       C2856   1.308       .  A
O534      Zr2846   2.413       .  S
O534        C553   1.279       .  A
O535        C552   1.267       .  A
O536      Zr2848   2.434   1_455  S
O536        C551   1.284       .  A
O537       Zr542   2.395       .  S
O537       Zr544   2.393       .  S
O537      Zr2833   2.381       .  S
O538       Zr543   2.386       .  S
O538       Zr544   2.384       .  S
O538      Zr2833   2.399       .  S
O538        H573   0.962       .  S
O539       Zr542   2.401       .  S
O539       Zr559   2.409       .  S
O539      Zr2833   2.419       .  S
O539       H2880   0.965       .  S
O540       Zr543   2.392       .  S
O540       Zr559   2.376       .  S
O540      Zr2833   2.414       .  S
Zr541       O547   2.410       .  S
Zr541       O548   2.395       .  S
Zr541       O549   2.364       .  S
Zr541       O550   2.394       .  S
Zr541       O566   2.445       .  S
Zr541       O560   2.429       .  S
Zr541       O568   2.374       .  S
Zr541       O556   2.440       .  S
Zr542       O548   2.377       .  S
Zr542       O549   2.389       .  S
Zr542       O561   2.444       .  S
Zr542       O554   2.435       .  S
Zr542       O555   2.425       .  S
Zr542      O2838   2.403       .  S
Zr543       O547   2.408       .  S
Zr543       O550   2.371       .  S
Zr543       O545   2.435       .  S
Zr543       O567   2.433       .  S
Zr543       O569   2.565       .  S
Zr544       O547   2.392       .  S
Zr544       O548   2.407       .  S
Zr544       O570   2.436       .  S
Zr544       O571   2.435       .  S
Zr544       O546   2.435       .  S
Zr544      O2840   2.420       .  S
O545        H582   0.990       .  S
O546        H577   0.991       .  S
O546       H2895   0.990       .  S
O548        H574   0.969       .  S
O549       Zr559   2.367       .  S
O550       Zr559   2.373       .  S
O550        H575   0.963       .  S
C551        C824   1.490       .  S
C552       O2837   1.304   1_455  A
C552        C854   1.506       .  S
C553        C834   1.468       .  S
O554       H2894   0.990       .  S
O555        C557   1.281       .  A
O556        C557   1.286       .  A
C557        C994   1.477       .  S
O558       Zr559   2.436       .  S
O558        H587   0.990       .  S
Zr559       O562   2.433       .  S
Zr559       O563   2.436       .  S
Zr559       O564   2.437       .  S
O560        C565   1.283       .  A
O561        H578   0.991       .  S
O561        H593   0.989       .  S
O562        H579   0.990       .  S
O563        H583   0.990       .  S
O563        H592   0.990       .  S
O564        C565   1.285       .  A
C565        C844   1.467       .  S
O566        H585   0.989       .  S
O566        H589   0.990       .  S
O567        H581   0.990       .  S
O567        H588   0.990       .  S
O568        C572   1.272       .  A
O569        C572   1.313       .  A
O570        H580   0.990       .  S
O571        H584   0.990       .  S
C572        C864   1.522       .  S
H576       O2843   0.964       .  S
H590       O2858   0.990       .  S
H591       O2850   0.990       .  S
Zr595      O1755   2.375       .  S
Zr595      O1756   2.404       .  S
Zr595      O1757   2.417       .  S
Zr595      O1758   2.410       .  S
Zr595       O596   2.444       .  S
Zr595       O597   2.476       .  S
Zr595       O598   2.444       .  S
Zr595       O601   2.380       .  S
O596        H652   0.990       .  S
O596        H660   0.990       .  S
O597        C617   1.290       .  A
O598        C619   1.282       .  A
O599       Zr609   2.572       .  S
O599       C1770   1.311       .  A
O600      Zr1760   2.419       .  S
O600        C619   1.280       .  A
O601        C618   1.266       .  A
O602      Zr1762   2.415       .  S
O602        C617   1.279       .  A
O603       Zr608   2.397   1_565  S
O603       Zr610   2.388   1_565  S
O603      Zr1747   2.379       .  S
O604       Zr609   2.390       .  S
O604       Zr610   2.394       .  S
O604      Zr1747   2.399   1_545  S
O604        H639   0.961       .  S
O605       Zr608   2.408       .  S
O605       Zr625   2.414       .  S
O605      Zr1747   2.421   1_545  S
O605        H642   0.964   1_545  S
O606       Zr609   2.382       .  S
O606       Zr625   2.381       .  S
O606      Zr1747   2.405   1_545  S
Zr607       O613   2.409       .  S
Zr607       O614   2.392       .  S
Zr607       O615   2.361       .  S
Zr607       O616   2.391       .  S
Zr607       O632   2.439       .  S
Zr607       O626   2.431       .  S
Zr607       O634   2.380       .  S
Zr607       O622   2.443       .  S
Zr608       O614   2.383       .  S
Zr608       O615   2.389       .  S
Zr608       O627   2.445   1_545  S
Zr608       O620   2.436   1_545  S
Zr608       O621   2.442       .  S
Zr608      O1752   2.418   1_545  S
Zr609       O613   2.409       .  S
Zr609       O616   2.373       .  S
Zr609       O611   2.436       .  S
Zr609       O633   2.434       .  S
Zr609       O635   2.556       .  S
Zr610       O613   2.391       .  S
Zr610       O614   2.409       .  S
Zr610       O636   2.436       .  S
Zr610       O637   2.434       .  S
Zr610       O612   2.437   1_545  S
Zr610      O1754   2.410   1_545  S
O611        H648   0.989       .  S
O612        H643   0.991       .  S
O612        H657   0.989       .  S
O614        H640   0.964       .  S
O615       Zr625   2.364       .  S
O616       Zr625   2.370       .  S
O616        H641   0.962       .  S
C617        C984   1.481       .  S
C618       O1751   1.306       .  A
C618       C1047   1.510       .  S
C619        C837   1.469       .  S
O620       H1808   0.990       .  S
O621        C623   1.285       .  A
O622        C623   1.287       .  A
C623        C817   1.488       .  S
O624       Zr625   2.439       .  S
O624        H653   0.990       .  S
Zr625       O628   2.434       .  S
Zr625       O629   2.437       .  S
Zr625       O630   2.441       .  S
O626        C631   1.283       .  A
O627        H644   0.990       .  S
O627        H659   0.990       .  S
O628        H645   0.990       .  S
O629        H649   0.990       .  S
O629        H658   0.989       .  S
O630        C631   1.285       .  A
C631        C847   1.470       .  S
O632        H651   0.990       .  S
O632        H655   0.990       .  S
O633        H647   0.990       .  S
O633        H654   0.990       .  S
O634        C638   1.274       .  A
O635        C638   1.311       .  A
O636        H646   0.990       .  S
O637        H650   0.990       .  S
C638       C1037   1.519       .  S
H656       O1772   0.990       .  S
Zr661       O669   2.382       .  S
Zr661       O670   2.409       .  S
Zr661       O671   2.421       .  S
Zr661       O672   2.404       .  S
Zr661      O1814   2.446       .  S
Zr661      O1815   2.429       .  S
Zr661      O1816   2.439       .  S
Zr661      O1819   2.391       .  S
O662      Zr1813   2.444       .  S
O662        H718   0.990       .  S
O662        H726   0.988       .  S
O663      Zr1813   2.431       .  S
O663        C683   1.281       .  A
O664      Zr1813   2.442       .  S
O664        C685   1.275       .  A
O665       Zr675   2.573       .  S
O665        C684   1.314       .  A
O666      Zr1826   2.382   1_545  S
O666        C685   1.263       .  A
O667      Zr1813   2.394       .  S
O667       C1836   1.277   1_545  A
O668       Zr676   2.453       .  S
O668       C1835   1.287       .  A
O669       Zr674   2.400       .  S
O669       Zr676   2.372       .  S
O670       Zr675   2.391       .  S
O670       Zr676   2.387       .  S
O670        H705   0.961       .  S
O671       Zr674   2.397       .  S
O671       Zr691   2.397       .  S
O671        H708   0.965       .  S
O672       Zr675   2.397       .  S
O672       Zr691   2.364       .  S
Zr673       O679   2.415       .  S
Zr673       O680   2.390       .  S
Zr673       O681   2.349       .  S
Zr673       O682   2.405       .  S
Zr673       O698   2.441       .  S
Zr673       O692   2.406       .  S
Zr673       O700   2.385       .  S
Zr673       O688   2.483       .  S
Zr674       O680   2.376       .  S
Zr674       O681   2.373       .  S
Zr674       O693   2.433       .  S
Zr674       O686   2.435       .  S
Zr674       O687   2.412       .  S
Zr674      O1818   2.390       .  S
Zr675       O679   2.399       .  S
Zr675       O682   2.384       .  S
Zr675       O677   2.437       .  S
Zr675       O699   2.435       .  S
Zr675       O701   2.567       .  S
Zr676       O679   2.390       .  S
Zr676       O680   2.429       .  S
Zr676       O702   2.432       .  S
Zr676       O703   2.435       .  S
Zr676       O678   2.436       .  S
O677        H714   0.989       .  S
O678        H709   0.990       .  S
O678        H723   0.990       .  S
O680        H706   0.967       .  S
O681       Zr691   2.373       .  S
O682       Zr691   2.383       .  S
O682        H707   0.964       .  S
C683       O1820   1.286   1_545  A
C683        C907   1.483       .  S
C684       O1819   1.276       .  A
C684       C2049   1.519       .  S
C685        C794   1.492       .  S
O686        H722   0.990       .  S
O687        C689   1.279       .  A
O688        C689   1.294       .  A
C689        C827   1.492       .  S
O690       Zr691   2.437       .  S
O690        H719   0.990       .  S
Zr691       O694   2.437       .  S
Zr691       O695   2.437       .  S
Zr691       O696   2.410       .  S
O692        C697   1.280       .  A
O693        H710   0.990       .  S
O693        H725   0.990       .  S
O694        H711   0.990       .  S
O695        H715   0.990       .  S
O695        H724   0.989       .  S
O696        C697   1.279       .  A
C697        C804   1.446       .  S
O698        H717   0.990       .  S
O698        H721   0.990       .  S
O699        H713   0.990       .  S
O699        H720   0.990       .  S
O700        C704   1.276       .  A
O701        C704   1.313       .  A
O702        H712   0.990       .  S
O703        H716   0.990       .  S
C704        C887   1.523       .  S
Zr727       O735   2.376       .  S
Zr727       O736   2.399       .  S
Zr727       O737   2.405       .  S
Zr727       O738   2.400       .  S
Zr727       O728   2.440       .  S
Zr727       O729   2.440       .  S
Zr727       O730   2.446       .  S
Zr727       O733   2.388       .  S
O728        H784   0.991       .  S
O728        H792   0.989       .  S
O729        C749   1.284       .  A
O730        C751   1.281       .  A
O731       Zr741   2.537       .  S
O731        C750   1.307       .  A
O732       Zr740   2.386       .  S
O732        C751   1.273       .  A
O733        C750   1.276       .  A
O734       Zr742   2.441       .  S
O734        C749   1.285       .  A
O735       Zr740   2.401       .  S
O735       Zr742   2.376       .  S
O736       Zr741   2.394       .  S
O736       Zr742   2.390       .  S
O736        H771   0.960       .  S
O737       Zr740   2.406       .  S
O737       Zr757   2.388       .  S
O737        H774   0.967       .  S
O738       Zr741   2.396       .  S
O738       Zr757   2.372       .  S
Zr739       O745   2.400       .  S
Zr739       O746   2.400       .  S
Zr739       O747   2.362       .  S
Zr739       O748   2.385       .  S
Zr739       O764   2.437       .  S
Zr739       O758   2.420       .  S
Zr739       O766   2.371       .  S
Zr739       O754   2.435       .  S
Zr740       O746   2.385       .  S
Zr740       O747   2.373       .  S
Zr740       O759   2.441       .  S
Zr740       O752   2.436       .  S
Zr740       O753   2.439       .  S
Zr741       O745   2.386       .  S
Zr741       O748   2.366       .  S
Zr741       O743   2.436       .  S
Zr741       O765   2.436       .  S
Zr741       O767   2.559       .  S
Zr742       O745   2.392       .  S
Zr742       O746   2.419       .  S
Zr742       O768   2.430       .  S
Zr742       O769   2.435       .  S
Zr742       O744   2.435       .  S
O743        H780   0.990       .  S
O744        H775   0.990       .  S
O744        H789   0.990       .  S
O746        H772   0.963       .  S
O747       Zr757   2.367       .  S
O748       Zr757   2.384       .  S
O748        H773   0.963       .  S
C749        C814   1.485       .  S
C750        C867   1.495       .  S
C751        C797   1.453       .  S
O752        H788   0.990       .  S
O753        C755   1.283       .  A
O754        C755   1.285       .  A
C755        C877   1.487       .  S
O756       Zr757   2.437       .  S
O756        H785   0.990       .  S
Zr757       O760   2.436       .  S
Zr757       O761   2.435       .  S
Zr757       O762   2.396       .  S
O758        C763   1.282       .  A
O759        H776   0.990       .  S
O759        H791   0.990       .  S
O760        H777   0.990       .  S
O761        H781   0.990       .  S
O761        H790   0.990       .  S
O762        C763   1.277       .  A
C763        C807   1.442       .  S
O764        H783   0.989       .  S
O764        H787   0.990       .  S
O765        H779   0.990       .  S
O765        H786   0.990       .  S
O766        C770   1.273       .  A
O767        C770   1.312       .  A
O768        H778   0.990       .  S
O769        H782   0.990       .  S
C770        C857   1.515       .  S
C793        C794   1.427       .  A
C793        C798   1.411       .  A
C793       Br800   1.932       .  S
C794        C795   1.424       .  A
C795        C796   1.394       .  A
C795       Br802   1.935       .  S
C796        C797   1.394       .  A
C796       Br801   1.933       .  S
C797        C798   1.402       .  A
C798       Br799   1.926       .  S
C803        C804   1.408       .  A
C803        C808   1.396       .  A
C803       Br810   1.927       .  S
C804        C805   1.402       .  A
C805        C806   1.396       .  A
C805       Br812   1.925       .  S
C806        C807   1.406       .  A
C806       Br811   1.931       .  S
C807        C808   1.400       .  A
C808       Br809   1.930       .  S
C813        C814   1.410       .  A
C813        C818   1.413       .  A
C813       Br820   1.933       .  S
C814        C815   1.414       .  A
C815        C816   1.408       .  A
C815       Br822   1.932       .  S
C816        C817   1.411       .  A
C816       Br821   1.932       .  S
C817        C818   1.417       .  A
C818       Br819   1.930       .  S
C823        C824   1.407       .  A
C823        C828   1.416       .  A
C823       Br830   1.931       .  S
C824        C825   1.419       .  A
C825        C826   1.412       .  A
C825      Br3136   1.931   1_455  S
C826        C827   1.408       .  A
C826       Br831   1.931       .  S
C827        C828   1.419       .  A
C828       Br829   1.926       .  S
Br832      C3129   1.928       .  S
C833        C834   1.403       .  A
C833        C838   1.404       .  A
C833       Br840   1.926       .  S
C834        C835   1.412       .  A
C835        C836   1.404       .  A
C835       Br842   1.929       .  S
C836        C837   1.403       .  A
C836       Br841   1.926       .  S
C837        C838   1.412       .  A
C838       Br839   1.928       .  S
C843        C844   1.414       .  A
C843        C848   1.406       .  A
C843       Br850   1.932       .  S
C844        C845   1.402       .  A
C845        C846   1.404       .  A
C845       Br852   1.932       .  S
C846        C847   1.414       .  A
C846       Br851   1.929       .  S
C847        C848   1.405       .  A
C848       Br849   1.929       .  S
C853        C854   1.410       .  A
C853        C858   1.423       .  A
C853       Br860   1.931       .  S
C854        C855   1.420       .  A
C855        C856   1.419       .  A
C855       Br862   1.932       .  S
C856        C857   1.413       .  A
C856       Br861   1.928       .  S
C857        C858   1.430       .  A
C858       Br859   1.929       .  S
C863        C864   1.415       .  A
C863        C868   1.421       .  A
C863       Br870   1.928       .  S
C864        C865   1.439       .  A
C865        C866   1.418       .  A
C865       Br872   1.935       .  S
C866        C867   1.401       .  A
C866       Br871   1.934       .  S
C867        C868   1.416       .  A
C868       Br869   1.926       .  S
C873        C874   1.408       .  A
C873        C878   1.414       .  A
C873       Br880   1.927       .  S
C874        C875   1.414       .  A
C875        C876   1.407       .  A
C875      Br3186   1.929   1_455  S
C876        C877   1.408       .  A
C876       Br881   1.931       .  S
C877        C878   1.416       .  A
C878       Br879   1.926       .  S
Br882      C3179   1.934       .  S
C883        C884   1.411       .  A
C883        C888   1.423       .  A
C883       Br890   1.928       .  S
C884        C885   1.424       .  A
C885        C886   1.427       .  A
C885       Br892   1.932       .  S
C886        C887   1.416       .  A
C886       Br891   1.926       .  S
C887        C888   1.426       .  A
C888       Br889   1.927       .  S
C893        C894   1.421       .  A
C893        C898   1.424       .  A
C893       Br900   1.929       .  S
C894        C895   1.408       .  A
C895        C896   1.418       .  A
C895       Br902   1.929       .  S
C896        C897   1.422       .  A
C896       Br901   1.931       .  S
C897       C1836   1.512   1_545  S
C897        C898   1.413       .  A
C898      Br2051   1.922   1_545  S
Br899      C2050   1.925       .  S
C903        C904   1.415       .  A
C903        C908   1.412       .  A
C903       Br910   1.929       .  S
C904        C905   1.409       .  A
C905        C906   1.407       .  A
C905       Br912   1.928   1_545  S
C906        C907   1.413       .  A
C906       Br911   1.930   1_545  S
C907        C908   1.411       .  A
C908       Br909   1.932       .  S
C913        C914   1.400       .  A
C913        C918   1.403       .  A
C913       Br920   1.927       .  S
C914        C915   1.411       .  A
C915        C916   1.401       .  A
C915       Br922   1.928       .  S
C916        C917   1.403       .  A
C916       Br921   1.929       .  S
C917        C918   1.415       .  A
C918       Br919   1.929       .  S
C923        C924   1.423       .  A
C923        C928   1.407       .  A
C923       Br930   1.932       .  S
C924        C925   1.411       .  A
C925        C926   1.397       .  A
C925       Br932   1.939       .  S
C926        C927   1.409       .  A
C926       Br931   1.931       .  S
C927        C928   1.405       .  A
C928       Br929   1.934       .  S
C933        C934   1.402       .  A
C933        C938   1.410       .  A
C933       Br940   1.926       .  S
C934        C935   1.390       .  A
C935        C936   1.388       .  A
C935       Br942   1.933       .  S
C936        C937   1.419       .  A
C936       Br941   1.931       .  S
C937        C938   1.422       .  A
C938       Br939   1.926       .  S
C943        C944   1.409       .  A
C943        C948   1.404       .  A
C943       Br950   1.934       .  S
C944        C945   1.408       .  A
C945        C946   1.399       .  A
C945       Br952   1.941       .  S
C946        C947   1.422       .  A
C946       Br951   1.940       .  S
C947        C948   1.425       .  A
C948       Br949   1.941       .  S
C953        C954   1.416       .  A
C953        C958   1.404       .  A
C953      Br3264   1.929       .  S
C954        C955   1.408       .  A
C955        C956   1.409       .  A
C955       Br962   1.927       .  S
C956        C957   1.412       .  A
C956       Br961   1.929       .  S
C957        C958   1.403       .  A
C958      Br3263   1.928       .  S
Br959      C3262   1.932   1_455  S
Br960      C3257   1.929   1_455  S
C963        C964   1.411       .  A
C963        C968   1.420       .  A
C963       Br970   1.927       .  S
C964        C965   1.416       .  A
C965        C966   1.419       .  A
C965       Br972   1.928       .  S
C966        C967   1.413       .  A
C966       Br971   1.929       .  S
C967       C2526   1.497       .  S
C967        C968   1.418       .  A
C968      Br3273   1.927       .  S
Br969      C3272   1.925       .  S
C973        C974   1.435       .  A
C973        C978   1.418       .  A
C973       Br980   1.933       .  S
C974        C975   1.412       .  A
C975        C976   1.421       .  A
C975       Br982   1.930       .  S
C976        C977   1.425       .  A
C976       Br981   1.927       .  S
C977        C978   1.401       .  A
C978       Br979   1.932       .  S
C983        C984   1.408       .  A
C983        C988   1.414       .  A
C983       Br990   1.929       .  S
C984        C985   1.412       .  A
C985        C986   1.404       .  A
C985      Br2144   1.930       .  S
C986        C987   1.409       .  A
C986       Br991   1.932       .  S
C987        C988   1.418       .  A
C988       Br989   1.930       .  S
Br992      C2137   1.929   1_545  S
C993        C994   1.405       .  A
C993        C998   1.404       .  A
C993      Br1000   1.930       .  S
C994        C995   1.413       .  A
C995        C996   1.411       .  A
C995      Br1002   1.931       .  S
C996        C997   1.412       .  A
C996      Br1001   1.930       .  S
C997        C998   1.416       .  A
C998       Br999   1.933       .  S
C1003      C1004   1.409       .  A
C1003      C1008   1.407       .  A
C1003     Br1010   1.932       .  S
C1004      C1005   1.415       .  A
C1005      C1006   1.408       .  A
C1005     Br1012   1.932       .  S
C1006      C1007   1.416       .  A
C1006     Br1011   1.934       .  S
C1007      C1008   1.418       .  A
C1008     Br1009   1.934       .  S
C1013      C1014   1.400       .  A
C1013      C1018   1.398       .  A
C1013     Br1020   1.928       .  S
C1014      C1015   1.409       .  A
C1015      C1016   1.401       .  A
C1015     Br1022   1.927       .  S
C1016      C1017   1.403       .  A
C1016     Br1021   1.925       .  S
C1017      C1018   1.415       .  A
C1018     Br1019   1.931       .  S
C1023      C1024   1.410       .  A
C1023      C1028   1.399       .  A
C1023     Br1030   1.931       .  S
C1024      C1025   1.404       .  A
C1025      C1026   1.399       .  A
C1025     Br1032   1.932       .  S
C1026      C1027   1.410       .  A
C1026     Br1031   1.930       .  S
C1027      C1028   1.401       .  A
C1028     Br1029   1.932       .  S
C1033      C1034   1.406       .  A
C1033      C1038   1.421       .  A
C1033     Br1040   1.931       .  S
C1034      C1035   1.422       .  A
C1035      C1036   1.423       .  A
C1035     Br1042   1.923       .  S
C1036      C1037   1.413       .  A
C1036     Br1041   1.929       .  S
C1037      C1038   1.432       .  A
C1038     Br1039   1.931       .  S
C1043      C1044   1.414       .  A
C1043      C1048   1.423       .  A
C1043     Br1050   1.927       .  S
C1044      C1045   1.432       .  A
C1045      C1046   1.421       .  A
C1045     Br1052   1.930       .  S
C1046      C1047   1.408       .  A
C1046     Br1051   1.926       .  S
C1047      C1048   1.422       .  A
C1048     Br1049   1.932       .  S
C1053      C1054   1.412       .  A
C1053      C1058   1.413       .  A
C1053     Br1060   1.921       .  S
C1054      C1055   1.413       .  A
C1055      C1056   1.417       .  A
C1055     Br1062   1.936       .  S
C1056      C1057   1.425       .  A
C1056     Br1061   1.935       .  S
C1057      C1058   1.421       .  A
C1058     Br1059   1.934       .  S
C1063      C1064   1.422   1_545  A
C1063      C1068   1.423       .  A
C1063     Br1070   1.922   1_545  S
C1064      C1242   1.509       .  S
C1064      C1065   1.408   1_565  A
C1065      C1066   1.422       .  A
C1065     Br1072   1.929   1_545  S
C1066      C1067   1.428       .  A
C1066     Br1071   1.929       .  S
C1067      C1068   1.412       .  A
C1068     Br1069   1.928       .  S
C1073      C1074   1.416       .  A
C1073      C1078   1.425       .  A
C1073     Br1080   1.930       .  S
C1074      C1075   1.419       .  A
C1075      C1076   1.429       .  A
C1075     Br1082   1.926       .  S
C1076      C1077   1.417       .  A
C1076     Br1081   1.927       .  S
C1077      C1078   1.419       .  A
C1078     Br1079   1.928       .  S
C1083      C1084   1.416       .  A
C1083      C1088   1.407       .  A
C1083     Br1090   1.930       .  S
C1084      C1085   1.408       .  A
C1085      C1086   1.405       .  A
C1085     Br1092   1.930       .  S
C1086      C1087   1.415       .  A
C1086     Br1091   1.933       .  S
C1087      C1088   1.406       .  A
C1088     Br1089   1.932   1_556  S
C1093      C1094   1.417       .  A
C1093      C1098   1.412       .  A
C1093     Br1100   1.928       .  S
C1094      C1095   1.408       .  A
C1095      C1096   1.406       .  A
C1095     Br1102   1.929       .  S
C1096      C1097   1.414       .  A
C1096     Br3405   1.931       .  S
C1097      C1098   1.406       .  A
C1098     Br1099   1.928       .  S
Br1101     C3400   1.931   1_455  S
C1103      C1104   1.408       .  A
C1103      C1108   1.408       .  A
C1103     Br1110   1.929       .  S
C1104      C1105   1.416       .  A
C1105      C1106   1.414       .  A
C1105     Br1112   1.929       .  S
C1106      C1107   1.408       .  A
C1106     Br1111   1.925       .  S
C1107      C1108   1.415       .  A
C1108     Br1109   1.932       .  S
C1113      C1114   1.403       .  A
C1113      C1118   1.404       .  A
C1113     Br1120   1.928       .  S
C1114      C1115   1.415       .  A
C1115      C1116   1.404       .  A
C1115     Br1122   1.928       .  S
C1116      C1117   1.403       .  A
C1116     Br1121   1.930       .  S
C1117      C1118   1.414       .  A
C1118     Br1119   1.930       .  S
C1123      C1124   1.411       .  A
C1123      C1128   1.403       .  A
C1123     Br1130   1.930       .  S
C1124      C1125   1.421       .  A
C1125      C1126   1.403       .  A
C1125     Br1132   1.933       .  S
C1126      C1127   1.405       .  A
C1126     Br1131   1.935       .  S
C1127      C1128   1.409       .  A
C1128     Br1129   1.932       .  S
C1133      C1134   1.411       .  A
C1133      C1138   1.418       .  A
C1133     Br1140   1.927       .  S
C1134      C2328   1.501       .  S
C1134      C1135   1.420   1_554  A
C1135      C1136   1.420   1_556  A
C1135     Br1142   1.931       .  S
C1136      C1137   1.411       .  A
C1136     Br1141   1.927   1_554  S
C1137      C1138   1.420       .  A
C1138     Br1139   1.934       .  S
C1143      C1144   1.419   1_556  A
C1143      C1148   1.415       .  A
C1143     Br1150   1.932       .  S
C1144      C1145   1.411       .  A
C1145      C1146   1.420       .  A
C1145     Br1152   1.925       .  S
C1146      C1147   1.417       .  A
C1146     Br1151   1.928       .  S
C1147      C1148   1.409   1_554  A
C1148     Br1149   1.930       .  S
Zr1153     O1161   2.376       .  S
Zr1153     O1162   2.398   1_556  S
Zr1153     O1163   2.414       .  S
Zr1153     O1164   2.414       .  S
Zr1153     O3458   2.442   1_455  S
Zr1153     O3459   2.476   1_456  S
Zr1153     O3460   2.443   1_455  S
Zr1153     O3463   2.385       .  S
O1154     Zr3457   2.446       .  S
O1154      H1210   0.990   1_556  S
O1154      H1218   0.990       .  S
O1155     Zr3457   2.483   1_554  S
O1155      C1175   1.292       .  A
O1156     Zr3457   2.444       .  S
O1156      C1177   1.283       .  A
O1157     Zr1167   2.541       .  S
O1157      C1176   1.302       .  A
O1158     Zr3470   2.409       .  S
O1158      C1177   1.279       .  A
O1159     Zr3457   2.390       .  S
O1159      C3480   1.270   1_556  A
O1160     Zr1168   2.418   1_554  S
O1160      C3479   1.281   1_455  A
O1161     Zr1166   2.392       .  S
O1161     Zr1168   2.389       .  S
O1162     Zr1167   2.387       .  S
O1162     Zr1168   2.394   1_554  S
O1162      H1197   0.963       .  S
O1163     Zr1166   2.400       .  S
O1163     Zr1183   2.405       .  S
O1163      H1200   0.965       .  S
O1164     Zr1167   2.389   1_556  S
O1164     Zr1183   2.380       .  S
Zr1165     O1171   2.401       .  S
Zr1165     O1172   2.389       .  S
Zr1165     O1173   2.360       .  S
Zr1165     O1174   2.395       .  S
Zr1165     O1190   2.435       .  S
Zr1165     O1184   2.401       .  S
Zr1165     O1192   2.392       .  S
Zr1165     O1180   2.433       .  S
Zr1166     O1172   2.383       .  S
Zr1166     O1173   2.379       .  S
Zr1166     O1185   2.446       .  S
Zr1166     O1178   2.437       .  S
Zr1166     O3462   2.413   1_455  S
Zr1166     O1179   2.432       .  S
Zr1167     O1171   2.407   1_554  S
Zr1167     O1174   2.383   1_554  S
Zr1167     O1169   2.437   1_554  S
Zr1167     O1191   2.435       .  S
Zr1167     O1193   2.535       .  S
Zr1168     O1171   2.395       .  S
Zr1168     O1172   2.408       .  S
Zr1168     O1194   2.435   1_556  S
Zr1168     O1195   2.438       .  S
Zr1168     O1170   2.439       .  S
O1169      H1206   0.990   1_556  S
O1170      H1201   0.991   1_556  S
O1170      H1215   0.989   1_455  S
O1172      H1198   0.971       .  S
O1173     Zr1183   2.355       .  S
O1174     Zr1183   2.381       .  S
O1174      H1199   0.966       .  S
C1175      O3464   1.278       .  A
C1175      C2249   1.479       .  S
C1176      O3463   1.270   1_554  A
C1176      C4590   1.491       .  S
C1177      C2269   1.465       .  S
O1178      H1214   0.990       .  S
O1179      C1181   1.283       .  A
O1180      C1181   1.285       .  A
C1181      C2256   1.480       .  S
O1182     Zr1183   2.438       .  S
O1182      H1211   0.990       .  S
Zr1183     O1186   2.431       .  S
Zr1183     O1187   2.438       .  S
Zr1183     O1188   2.436       .  S
O1184      C1189   1.277       .  A
O1185      H1202   0.990   1_455  S
O1185      H1217   0.991       .  S
O1186      H1203   0.990       .  S
O1187      H1207   0.990       .  S
O1187      H1216   0.990       .  S
O1188      C1189   1.285       .  A
C1189      C2276   1.484       .  S
O1190      H1209   0.989       .  S
O1190      H1213   0.989       .  S
O1191      H1205   0.990       .  S
O1191      H1212   0.990       .  S
O1192      C1196   1.277       .  A
O1193      C1196   1.306   1_554  A
O1194      H1204   0.990       .  S
O1195      H1208   0.989       .  S
C1196      C2299   1.503   1_556  S
Zr1219     O1220   2.450       .  S
Zr1219     O1221   2.478       .  S
Zr1219     O1222   2.447       .  S
Zr1219     O1225   2.368       .  S
O1220      H1276   0.988       .  S
O1220      H1284   0.993       .  S
O1221      C1241   1.290       .  A
O1222      C1243   1.281       .  A
O1223     Zr1233   2.565       .  S
O1223      C1242   1.311       .  A
O1224      C1243   1.275       .  A
O1226      C1241   1.277       .  A
O1227     Zr1232   2.397       .  S
O1227     Zr1234   2.397       .  S
O1228     Zr1233   2.394       .  S
O1228     Zr1234   2.398       .  S
O1228      H1263   0.963       .  S
O1229     Zr1232   2.401       .  S
O1229     Zr1249   2.410       .  S
O1229      H1266   0.961       .  S
O1230     Zr1233   2.392       .  S
O1230     Zr1249   2.388       .  S
Zr1231     O1237   2.408       .  S
Zr1231     O1238   2.391       .  S
Zr1231     O1239   2.357       .  S
Zr1231     O1240   2.392       .  S
Zr1231     O1256   2.437       .  S
Zr1231     O1250   2.421       .  S
Zr1231     O1258   2.380       .  S
Zr1231     O1246   2.463       .  S
Zr1232     O1238   2.381       .  S
Zr1232     O1239   2.394       .  S
Zr1232     O1251   2.449       .  S
Zr1232     O1244   2.439       .  S
Zr1232     O1245   2.404       .  S
Zr1233     O1237   2.406       .  S
Zr1233     O1240   2.382       .  S
Zr1233     O1235   2.436       .  S
Zr1233     O1257   2.437       .  S
Zr1233     O1259   2.558       .  S
Zr1234     O1237   2.389       .  S
Zr1234     O1238   2.416       .  S
Zr1234     O1260   2.435       .  S
Zr1234     O1261   2.440       .  S
Zr1234     O1236   2.439       .  S
O1235      H1272   0.990       .  S
O1236      H1267   0.990       .  S
O1236      H1281   0.990   1_565  S
O1238      H1264   0.960       .  S
O1239     Zr1249   2.368       .  S
O1240     Zr1249   2.368       .  S
O1240      H1265   0.965       .  S
C1241      C2209   1.500       .  S
C1243      C2266   1.467       .  S
O1244      H1280   0.990       .  S
O1245      C1247   1.276       .  A
O1246      C1247   1.289       .  A
C1247      C2236   1.476       .  S
O1248     Zr1249   2.436       .  S
O1248      H1277   0.989       .  S
Zr1249     O1252   2.434       .  S
Zr1249     O1253   2.439       .  S
Zr1249     O1254   2.432       .  S
O1250      C1255   1.282       .  A
O1251      H1268   0.991   1_565  S
O1251      H1283   0.990   1_565  S
O1252      H1269   0.990       .  S
O1253      H1273   0.988       .  S
O1253      H1282   0.991       .  S
O1254      C1255   1.283       .  A
C1255      C2279   1.469       .  S
O1256      H1275   0.991       .  S
O1256      H1279   0.988       .  S
O1257      H1271   0.990       .  S
O1257      H1278   0.990       .  S
O1258      C1262   1.276       .  A
O1259      C1262   1.311       .  A
O1260      H1270   0.990       .  S
O1261      H1274   0.989       .  S
C1262      C2229   1.511       .  S
Zr1285     O1293   2.380       .  S
Zr1285     O1294   2.394       .  S
Zr1285     O1295   2.414       .  S
Zr1285     O1296   2.404       .  S
Zr1285     O1286   2.446       .  S
Zr1285     O1287   2.449       .  S
Zr1285     O1288   2.433       .  S
Zr1285     O1291   2.374       .  S
O1286      H1342   0.990       .  S
O1286      H1350   0.990       .  S
O1287      C1307   1.283       .  A
O1288      C1309   1.278       .  A
O1289     Zr1299   2.588       .  S
O1289      C1308   1.316       .  A
O1290     Zr1298   2.406       .  S
O1290      C1309   1.279       .  A
O1291      C1308   1.271       .  A
O1292     Zr1300   2.425       .  S
O1292      C1307   1.282       .  A
O1293     Zr1298   2.401       .  S
O1293     Zr1300   2.389       .  S
O1294     Zr1299   2.393       .  S
O1294     Zr1300   2.393       .  S
O1294      H1329   0.963       .  S
O1295     Zr1298   2.404       .  S
O1295     Zr1315   2.382       .  S
O1295      H1332   0.963       .  S
O1296     Zr1299   2.390       .  S
O1296     Zr1315   2.380       .  S
Zr1297     O1303   2.401       .  S
Zr1297     O1304   2.388       .  S
Zr1297     O1305   2.361       .  S
Zr1297     O1306   2.398       .  S
Zr1297     O1322   2.442       .  S
Zr1297     O1316   2.426       .  S
Zr1297     O1324   2.364       .  S
Zr1297     O1312   2.442       .  S
Zr1298     O1304   2.378       .  S
Zr1298     O1305   2.385       .  S
Zr1298     O1317   2.443       .  S
Zr1298     O1310   2.435       .  S
Zr1298     O1311   2.429       .  S
Zr1299     O1303   2.403       .  S
Zr1299     O1306   2.382       .  S
Zr1299     O1301   2.436       .  S
Zr1299     O1323   2.437       .  S
Zr1299     O1325   2.577       .  S
Zr1300     O1303   2.389       .  S
Zr1300     O1304   2.408       .  S
Zr1300     O1326   2.436       .  S
Zr1300     O1327   2.434       .  S
Zr1300     O1302   2.437       .  S
O1301      H1338   0.990       .  S
O1302      H1333   0.991       .  S
O1302      H1347   0.989       .  S
O1304      H1330   0.969       .  S
O1305     Zr1315   2.370       .  S
O1306     Zr1315   2.378       .  S
O1306      H1331   0.965       .  S
C1307      C2149   1.483       .  S
C1308      C2186   1.519       .  S
C1309      C2169   1.462       .  S
O1310      H1346   0.990       .  S
O1311      C1313   1.282       .  A
O1312      C1313   1.284       .  A
C1313      C2159   1.494       .  S
O1314     Zr1315   2.437       .  S
O1314      H1343   0.990       .  S
Zr1315     O1318   2.437       .  S
Zr1315     O1319   2.435       .  S
Zr1315     O1320   2.404       .  S
O1316      C1321   1.283       .  A
O1317      H1334   0.991       .  S
O1317      H1349   0.990       .  S
O1318      H1335   0.990       .  S
O1319      H1339   0.990       .  S
O1319      H1348   0.990       .  S
O1320      C1321   1.278       .  A
C1321      C2176   1.453       .  S
O1322      H1341   0.991       .  S
O1322      H1345   0.990       .  S
O1323      H1337   0.990       .  S
O1323      H1344   0.990       .  S
O1324      C1328   1.271       .  A
O1325      C1328   1.316       .  A
O1326      H1336   0.990       .  S
O1327      H1340   0.990       .  S
C1328      C2196   1.525       .  S
Zr1351     O1359   2.374       .  S
Zr1351     O1360   2.396       .  S
Zr1351     O1361   2.406       .  S
Zr1351     O1362   2.393       .  S
Zr1351     O3656   2.444   1_455  S
Zr1351     O3657   2.438   1_455  S
Zr1351     O3658   2.429   1_455  S
Zr1351     O3661   2.389       .  S
O1352     Zr3655   2.444       .  S
O1352      H1408   0.989       .  S
O1352      H1416   0.991       .  S
O1353     Zr3655   2.467       .  S
O1353      C1373   1.288       .  A
O1354     Zr3655   2.450       .  S
O1354      C1375   1.283       .  A
O1355     Zr1365   2.554       .  S
O1355      C1374   1.306       .  A
O1356     Zr3668   2.412       .  S
O1356      C1375   1.279       .  A
O1357     Zr3655   2.379       .  S
O1357      C3678   1.272       .  A
O1358     Zr1366   2.417       .  S
O1358      C3677   1.280   1_455  A
O1359     Zr1364   2.387       .  S
O1359     Zr1366   2.386       .  S
O1360     Zr1365   2.381       .  S
O1360     Zr1366   2.393       .  S
O1360      H1395   0.960       .  S
O1361     Zr1364   2.402       .  S
O1361     Zr1381   2.395       .  S
O1361      H1398   0.962       .  S
O1362     Zr1365   2.390       .  S
O1362     Zr1381   2.368       .  S
Zr1363     O1369   2.392       .  S
Zr1363     O1370   2.395       .  S
Zr1363     O1371   2.359       .  S
Zr1363     O1372   2.389       .  S
Zr1363     O1388   2.435       .  S
Zr1363     O1382   2.414       .  S
Zr1363     O1390   2.367       .  S
Zr1363     O1378   2.420       .  S
Zr1364     O1370   2.378       .  S
Zr1364     O1371   2.388       .  S
Zr1364     O1383   2.442       .  S
Zr1364     O1376   2.437       .  S
Zr1364     O3660   2.404   1_455  S
Zr1364     O1377   2.420       .  S
Zr1365     O1369   2.398       .  S
Zr1365     O1372   2.369       .  S
Zr1365     O1367   2.433       .  S
Zr1365     O1389   2.434       .  S
Zr1365     O1391   2.564       .  S
Zr1366     O1369   2.386       .  S
Zr1366     O1370   2.411       .  S
Zr1366     O1392   2.433       .  S
Zr1366     O1393   2.438       .  S
Zr1366     O1368   2.439       .  S
O1367      H1404   0.990       .  S
O1368      H1399   0.991       .  S
O1368      H1413   0.990   1_455  S
O1370      H1396   0.967       .  S
O1371     Zr1381   2.370       .  S
O1372     Zr1381   2.384       .  S
O1372      H1397   0.965       .  S
C1373      O3662   1.280       .  A
C1373      C2106   1.481       .  S
C1374      O3661   1.274       .  A
C1374      C4423   1.494   1_455  S
C1375      C2166   1.467       .  S
O1376      H1412   0.990   1_455  S
O1377      C1379   1.280       .  A
O1378      C1379   1.281       .  A
C1379      C2139   1.469       .  S
O1380     Zr1381   2.438       .  S
O1380      H1409   0.990       .  S
Zr1381     O1384   2.437       .  S
Zr1381     O1385   2.436       .  S
Zr1381     O1386   2.417       .  S
O1382      C1387   1.280       .  A
O1383      H1400   0.990   1_455  S
O1383      H1415   0.991       .  S
O1384      H1401   0.990       .  S
O1385      H1405   0.990       .  S
O1385      H1414   0.990       .  S
O1386      C1387   1.281       .  A
C1387      C2179   1.448       .  S
O1388      H1407   0.990       .  S
O1388      H1411   0.990       .  S
O1389      H1403   0.990       .  S
O1389      H1410   0.990       .  S
O1390      C1394   1.272       .  A
O1391      C1394   1.312       .  A
O1392      H1402   0.990       .  S
O1393      H1406   0.990       .  S
C1394      C2126   1.524       .  S
Zr1417     O1418   2.443       .  S
Zr1417     O1419   2.435       .  S
Zr1417     O1420   2.418       .  S
Zr1417     O1423   2.375       .  S
O1418      H1474   0.991       .  S
O1418      H1482   0.991       .  S
O1419      C1439   1.281       .  A
O1420      C1441   1.273       .  A
O1421     Zr1431   2.560       .  S
O1422      C1441   1.276       .  A
O1423      C1440   1.272   1_565  A
O1424      C1439   1.283   1_545  A
O1425     Zr1430   2.399       .  S
O1425     Zr1432   2.383       .  S
O1426     Zr1431   2.399       .  S
O1426     Zr1432   2.394       .  S
O1426      H1461   0.967       .  S
O1427     Zr1430   2.408       .  S
O1427     Zr1447   2.409       .  S
O1427      H1464   0.964       .  S
O1428     Zr1431   2.383       .  S
O1428     Zr1447   2.372       .  S
Zr1429     O1435   2.400       .  S
Zr1429     O1436   2.391       .  S
Zr1429     O1437   2.352       .  S
Zr1429     O1438   2.399       .  S
Zr1429     O1454   2.442       .  S
Zr1429     O1448   2.415       .  S
Zr1429     O1456   2.370       .  S
Zr1429     O1444   2.436       .  S
Zr1430     O1436   2.385       .  S
Zr1430     O1437   2.370       .  S
Zr1430     O1449   2.442       .  S
Zr1430     O1442   2.436       .  S
Zr1430     O1443   2.439       .  S
Zr1431     O1435   2.401       .  S
Zr1431     O1438   2.390       .  S
Zr1431     O1433   2.435       .  S
Zr1431     O1455   2.436       .  S
Zr1431     O1457   2.540       .  S
Zr1432     O1435   2.386       .  S
Zr1432     O1436   2.422       .  S
Zr1432     O1458   2.435       .  S
Zr1432     O1459   2.436       .  S
Zr1432     O1434   2.435       .  S
O1433      H1470   0.990       .  S
O1434      H1465   0.990       .  S
O1434      H1479   0.990       .  S
O1436      H1462   0.961       .  S
O1437     Zr1447   2.360       .  S
O1438     Zr1447   2.381       .  S
O1438      H1463   0.962       .  S
C1439      C2156   1.492       .  S
C1440      C2129   1.507   1_545  S
C1441      C2086   1.448       .  S
O1443      C1445   1.284       .  A
O1444      C1445   1.284       .  A
C1445      C2246   1.487       .  S
O1446     Zr1447   2.434       .  S
O1446      H1475   0.990       .  S
Zr1447     O1450   2.430       .  S
Zr1447     O1451   2.439       .  S
Zr1447     O1452   2.423       .  S
O1448      C1453   1.279       .  A
O1449      H1466   0.988       .  S
O1449      H1481   0.992       .  S
O1450      H1467   0.990       .  S
O1451      H1471   0.990       .  S
O1451      H1480   0.990       .  S
O1452      C1453   1.282       .  A
C1453      C2099   1.488       .  S
O1454      H1473   0.990       .  S
O1454      H1477   0.989       .  S
O1455      H1469   0.990       .  S
O1455      H1476   0.990       .  S
O1456      C1460   1.273       .  A
O1457      C1460   1.307       .  A
O1458      H1468   0.990       .  S
O1459      H1472   0.989       .  S
C1460      C2116   1.493       .  S
Zr1483     O1491   2.366       .  S
Zr1483     O1492   2.394       .  S
Zr1483     O1493   2.417       .  S
Zr1483     O1494   2.406       .  S
Zr1483     O1484   2.440       .  S
Zr1483     O1485   2.441       .  S
Zr1483     O1486   2.443       .  S
Zr1483     O1489   2.370       .  S
O1484      H1540   0.988       .  S
O1484      H1548   0.991       .  S
O1485      C1505   1.284   1_554  A
O1486      C1507   1.276       .  A
O1487     Zr1497   2.554       .  S
O1487      C1506   1.309       .  A
O1488     Zr1496   2.405       .  S
O1488      C1507   1.268       .  A
O1489      C1506   1.273       .  A
O1490     Zr1498   2.429       .  S
O1490      C1505   1.282   1_554  A
O1491     Zr1496   2.393       .  S
O1491     Zr1498   2.368       .  S
O1492     Zr1497   2.384       .  S
O1492     Zr1498   2.394       .  S
O1492      H1527   0.967       .  S
O1493     Zr1496   2.397       .  S
O1493     Zr1513   2.406       .  S
O1493      H1530   0.967       .  S
O1494     Zr1497   2.391       .  S
O1494     Zr1513   2.382       .  S
Zr1495     O1501   2.400       .  S
Zr1495     O1502   2.379       .  S
Zr1495     O1503   2.342       .  S
Zr1495     O1504   2.395       .  S
Zr1495     O1520   2.439       .  S
Zr1495     O1514   2.394       .  S
Zr1495     O1522   2.365       .  S
Zr1495     O1510   2.453       .  S
Zr1496     O1502   2.381       .  S
Zr1496     O1503   2.371       .  S
Zr1496     O1515   2.444       .  S
Zr1496     O1508   2.436       .  S
Zr1496     O1509   2.408       .  S
Zr1497     O1501   2.406       .  S
Zr1497     O1504   2.384       .  S
Zr1497     O1499   2.437       .  S
Zr1497     O1521   2.437   1_554  S
Zr1497     O1523   2.535       .  S
Zr1498     O1501   2.395       .  S
Zr1498     O1502   2.410       .  S
Zr1498     O1524   2.433   1_554  S
Zr1498     O1525   2.440       .  S
Zr1498     O1500   2.441       .  S
O1499      H1536   0.990       .  S
O1500      H1531   0.990       .  S
O1500      H1545   0.990       .  S
O1502      H1528   0.963       .  S
O1503     Zr1513   2.359       .  S
O1504     Zr1513   2.380       .  S
O1504      H1529   0.965       .  S
C1505      C2239   1.487       .  S
C1506      C2296   1.506       .  S
C1507      C2089   1.484       .  S
O1508      H1544   0.990       .  S
O1509      C1511   1.280       .  A
O1510      C1511   1.288       .  A
C1511      C2109   1.474       .  S
O1512     Zr1513   2.440       .  S
O1512      H1541   0.990       .  S
Zr1513     O1516   2.437       .  S
Zr1513     O1517   2.430       .  S
Zr1513     O1518   2.435       .  S
O1514      C1519   1.278       .  A
O1515      H1532   0.990       .  S
O1515      H1547   0.990       .  S
O1516      H1533   0.990       .  S
O1517      H1537   0.990       .  S
O1517      H1546   0.989       .  S
O1518      C1519   1.284       .  A
C1519      C2096   1.464       .  S
O1520      H1539   0.990       .  S
O1520      H1543   0.989       .  S
O1521      H1535   0.990       .  S
O1521      H1542   0.990       .  S
O1522      C1526   1.273       .  A
O1523      C1526   1.306       .  A
O1524      H1534   0.990       .  S
O1525      H1538   0.990       .  S
C1526      C2289   1.500       .  S
Zr1549     O1557   2.382       .  S
Zr1549     O1558   2.403       .  S
Zr1549     O1559   2.413       .  S
Zr1549     O1560   2.408       .  S
Zr1549     O1550   2.446       .  S
Zr1549     O1551   2.462       .  S
Zr1549     O1552   2.450       .  S
Zr1549     O1555   2.388       .  S
O1550      H1606   0.989       .  S
O1550      H1614   0.992       .  S
O1551      C1571   1.288       .  A
O1552      C1573   1.282       .  A
O1553     Zr1563   2.569       .  S
O1553      C1572   1.309       .  A
O1554     Zr1562   2.412       .  S
O1554      C1573   1.279       .  A
O1555      C1572   1.270       .  A
O1556     Zr1564   2.407       .  S
O1556      C1571   1.279       .  A
O1557     Zr1562   2.385       .  S
O1557     Zr1564   2.392       .  S
O1558     Zr1563   2.384       .  S
O1558     Zr1564   2.393       .  S
O1558      H1593   0.959       .  S
O1559     Zr1562   2.401       .  S
O1559     Zr1579   2.405       .  S
O1559      H1596   0.961       .  S
O1560     Zr1563   2.389       .  S
O1560     Zr1579   2.382       .  S
Zr1561     O1567   2.406       .  S
Zr1561     O1568   2.396       .  S
Zr1561     O1569   2.366       .  S
Zr1561     O1570   2.393       .  S
Zr1561     O1586   2.441       .  S
Zr1561     O1580   2.416       .  S
Zr1561     O1588   2.383       .  S
Zr1561     O1576   2.441       .  S
Zr1562     O1568   2.384       .  S
Zr1562     O1569   2.394       .  S
Zr1562     O1581   2.443       .  S
Zr1562     O1574   2.438       .  S
Zr1562     O1575   2.415       .  S
Zr1563     O1567   2.405       .  S
Zr1563     O1570   2.371       .  S
Zr1563     O1565   2.432       .  S
Zr1563     O1587   2.436       .  S
Zr1563     O1589   2.571       .  S
Zr1564     O1567   2.388       .  S
Zr1564     O1568   2.401       .  S
Zr1564     O1590   2.435       .  S
Zr1564     O1591   2.436       .  S
Zr1564     O1566   2.437       .  S
O1565      H1602   0.990       .  S
O1566      H1597   0.990       .  S
O1566      H1611   0.990       .  S
O1568      H1594   0.962       .  S
O1569     Zr1579   2.364       .  S
O1570     Zr1579   2.378       .  S
O1570      H1595   0.958       .  S
C1571      C2259   1.474       .  S
C1572      C2226   1.506       .  S
C1573      C2066   1.470       .  S
O1574      H1610   0.990       .  S
O1575      C1577   1.279       .  A
O1576      C1577   1.287       .  A
C1577      C2056   1.472       .  S
O1578     Zr1579   2.436       .  S
O1578      H1607   0.991       .  S
Zr1579     O1582   2.433       .  S
Zr1579     O1583   2.436       .  S
Zr1579     O1584   2.437       .  S
O1580      C1585   1.281       .  A
O1581      H1598   0.990       .  S
O1581      H1613   0.991       .  S
O1582      H1599   0.990       .  S
O1583      H1603   0.990       .  S
O1583      H1612   0.990       .  S
O1584      C1585   1.284       .  A
C1585      C2079   1.469       .  S
O1586      H1605   0.990       .  S
O1586      H1609   0.988       .  S
O1587      H1601   0.990       .  S
O1587      H1608   0.990       .  S
O1588      C1592   1.275       .  A
O1589      C1592   1.315       .  A
O1590      H1600   0.990       .  S
O1591      H1604   0.990       .  S
C1592      C2219   1.528       .  S
Zr1615     O3927   2.377       .  S
Zr1615     O3928   2.403   1_455  S
Zr1615     O3929   2.413       .  S
Zr1615     O3930   2.420   1_455  S
Zr1615     O1616   2.442       .  S
Zr1615     O1617   2.474       .  S
Zr1615     O1618   2.460       .  S
Zr1615     O1621   2.384       .  S
O1616      H1672   0.990       .  S
O1616      H1680   0.991       .  S
O1617      C1637   1.290       .  A
O1618      C1639   1.285       .  A
O1619     Zr1629   2.560       .  S
O1619      C3942   1.305       .  A
O1620     Zr3932   2.409   1_455  S
O1620      C1639   1.278       .  A
O1621      C1638   1.269       .  A
O1622     Zr3934   2.428   1_455  S
O1622      C1637   1.283       .  A
O1623     Zr3919   2.382       .  S
O1623     Zr1628   2.391       .  S
O1623     Zr1630   2.392       .  S
O1624     Zr3919   2.400       .  S
O1624     Zr1629   2.390       .  S
O1624     Zr1630   2.389       .  S
O1624      H1659   0.960       .  S
O1625     Zr3919   2.414       .  S
O1625     Zr1628   2.402       .  S
O1625     Zr1645   2.399       .  S
O1625      H3966   0.964       .  S
O1626     Zr3919   2.413       .  S
O1626     Zr1629   2.387       .  S
O1626     Zr1645   2.378       .  S
Zr1627     O1633   2.414       .  S
Zr1627     O1634   2.397       .  S
Zr1627     O1635   2.366       .  S
Zr1627     O1636   2.401       .  S
Zr1627     O1652   2.437       .  S
Zr1627     O1646   2.417       .  S
Zr1627     O1654   2.401       .  S
Zr1627     O1642   2.470       .  S
Zr1628     O1634   2.384       .  S
Zr1628     O1635   2.393       .  S
Zr1628     O1647   2.447       .  S
Zr1628     O1640   2.436       .  S
Zr1628     O3924   2.410       .  S
Zr1628     O1641   2.424       .  S
Zr1629     O1633   2.413       .  S
Zr1629     O1636   2.381       .  S
Zr1629     O1631   2.436       .  S
Zr1629     O1653   2.437       .  S
Zr1629     O1655   2.543       .  S
Zr1630     O1633   2.394       .  S
Zr1630     O1634   2.412       .  S
Zr1630     O1656   2.433       .  S
Zr1630     O1657   2.436       .  S
Zr1630     O1632   2.438       .  S
Zr1630     O3926   2.431       .  S
O1631      H1668   0.990       .  S
O1632      H1663   0.991       .  S
O1632      H3981   0.989       .  S
O1634      H1660   0.969       .  S
O1635     Zr1645   2.365       .  S
O1636     Zr1645   2.375       .  S
O1636      H1661   0.962       .  S
C1637      C2026   1.488       .  S
C1638      O3923   1.307   1_455  A
C1638      C2036   1.511       .  S
C1639      C2069   1.471       .  S
O1640      H3980   0.990       .  S
O1641      C1643   1.282       .  A
O1642      C1643   1.291       .  A
C1643      C2206   1.495       .  S
O1644     Zr1645   2.436       .  S
O1644      H1673   0.990       .  S
Zr1645     O1648   2.438       .  S
Zr1645     O1649   2.440       .  S
Zr1645     O1650   2.428       .  S
O1646      C1651   1.279       .  A
O1647      H1664   0.990       .  S
O1647      H1679   0.991       .  S
O1648      H1665   0.990       .  S
O1649      H1669   0.989       .  S
O1649      H1678   0.990       .  S
O1650      C1651   1.283       .  A
C1651      C2076   1.487       .  S
O1652      H1671   0.991       .  S
O1652      H1675   0.990       .  S
O1653      H1667   0.990       .  S
O1653      H1674   0.990       .  S
O1654      C1658   1.280       .  A
O1655      C1658   1.308       .  A
O1656      H1666   0.990       .  S
O1657      H1670   0.990       .  S
C1658      C2046   1.512       .  S
H1662      O3929   0.965       .  S
H1676      O3944   0.990       .  S
H1677      O3936   0.990       .  S
Zr1681     O3993   2.374       .  S
Zr1681     O3994   2.393   1_455  S
Zr1681     O3995   2.422       .  S
Zr1681     O3996   2.408   1_455  S
Zr1681     O1682   2.446       .  S
Zr1681     O1683   2.467       .  S
Zr1681     O1684   2.425       .  S
Zr1681     O1687   2.373       .  S
O1682      H1738   0.990       .  S
O1682      H1746   0.990       .  S
O1683      C1703   1.288       .  A
O1684      C1705   1.278       .  A
O1685     Zr1695   2.555       .  S
O1685      C4008   1.305       .  A
O1686     Zr3998   2.391   1_455  S
O1686      C1705   1.277       .  A
O1687      C1704   1.268       .  A
O1688     Zr4000   2.427   1_455  S
O1688      C1703   1.283       .  A
O1689     Zr3985   2.378       .  S
O1689     Zr1694   2.395       .  S
O1689     Zr1696   2.386       .  S
O1690     Zr3985   2.397       .  S
O1690     Zr1695   2.383       .  S
O1690     Zr1696   2.382       .  S
O1690      H1725   0.967       .  S
O1691     Zr3985   2.421       .  S
O1691     Zr1694   2.403       .  S
O1691     Zr1711   2.410       .  S
O1691      H4032   0.963       .  S
O1692     Zr3985   2.409       .  S
O1692     Zr1695   2.394       .  S
O1692     Zr1711   2.374       .  S
Zr1693     O1699   2.408       .  S
Zr1693     O1700   2.399       .  S
Zr1693     O1701   2.362       .  S
Zr1693     O1702   2.386       .  S
Zr1693     O1718   2.439       .  S
Zr1693     O1712   2.432       .  S
Zr1693     O1720   2.385       .  S
Zr1693     O1708   2.438       .  S
Zr1694     O1700   2.385       .  S
Zr1694     O1701   2.382       .  S
Zr1694     O1713   2.444       .  S
Zr1694     O1706   2.436       .  S
Zr1694     O3990   2.412       .  S
Zr1694     O1707   2.444       .  S
Zr1695     O1699   2.402       .  S
Zr1695     O1702   2.374       .  S
Zr1695     O1697   2.434       .  S
Zr1695     O1719   2.437       .  S
Zr1695     O1721   2.557       .  S
Zr1696     O1699   2.395       .  S
Zr1696     O1700   2.418       .  S
Zr1696     O1722   2.433       .  S
Zr1696     O1723   2.436       .  S
Zr1696     O1698   2.438       .  S
Zr1696     O3992   2.441       .  S
O1697      H1734   0.990       .  S
O1698      H1729   0.991       .  S
O1698      H4047   0.990       .  S
O1700      H1726   0.970       .  S
O1701     Zr1711   2.363       .  S
O1702     Zr1711   2.381       .  S
O1702      H1727   0.959       .  S
C1703      C1976   1.484       .  S
C1704      O3989   1.309   1_455  A
C1704      C2006   1.504       .  S
C1705      C1986   1.459       .  S
O1706      H4046   0.990       .  S
O1707      C1709   1.284       .  A
O1708      C1709   1.285       .  A
C1709      C2146   1.477       .  S
O1710     Zr1711   2.439       .  S
O1710      H1739   0.990       .  S
Zr1711     O1714   2.432       .  S
Zr1711     O1715   2.434       .  S
Zr1711     O1716   2.433       .  S
O1712      C1717   1.284       .  A
O1713      H1730   0.991       .  S
O1713      H1745   0.990       .  S
O1714      H1731   0.990       .  S
O1715      H1735   0.990       .  S
O1715      H1744   0.990       .  S
O1716      C1717   1.284       .  A
C1717      C1996   1.468       .  S
O1718      H1737   0.989       .  S
O1718      H1741   0.989       .  S
O1719      H1733   0.990       .  S
O1719      H1740   0.990       .  S
O1720      C1724   1.276       .  A
O1721      C1724   1.311       .  A
O1722      H1732   0.990       .  S
O1723      H1736   0.990       .  S
C1724      C2016   1.518       .  S
H1728      O3995   0.964       .  S
H1742      O4010   0.990       .  S
H1743      O4002   0.990       .  S
Zr1747     O1748   2.447       .  S
Zr1747     O1749   2.472       .  S
Zr1747     O1750   2.431       .  S
Zr1747     O1753   2.387       .  S
O1748      H1804   0.991       .  S
O1748      H1812   0.990       .  S
O1749      C1769   1.288       .  A
O1750      C1771   1.278       .  A
O1751     Zr1761   2.573       .  S
O1752      C1771   1.280       .  A
O1753      C1770   1.272   1_565  A
O1754      C1769   1.279       .  A
O1755     Zr1760   2.388       .  S
O1755     Zr1762   2.388       .  S
O1756     Zr1761   2.398       .  S
O1756     Zr1762   2.387       .  S
O1756      H1791   0.959       .  S
O1757     Zr1760   2.394       .  S
O1757     Zr1777   2.406       .  S
O1757      H1794   0.963       .  S
O1758     Zr1761   2.391       .  S
O1758     Zr1777   2.375       .  S
Zr1759     O1765   2.410       .  S
Zr1759     O1766   2.407       .  S
Zr1759     O1767   2.368       .  S
Zr1759     O1768   2.393       .  S
Zr1759     O1784   2.438       .  S
Zr1759     O1778   2.453       .  S
Zr1759     O1786   2.392       .  S
Zr1759     O1774   2.441       .  S
Zr1760     O1766   2.388       .  S
Zr1760     O1767   2.392       .  S
Zr1760     O1779   2.441       .  S
Zr1760     O1772   2.438       .  S
Zr1760     O1773   2.426       .  S
Zr1761     O1765   2.405       .  S
Zr1761     O1768   2.370       .  S
Zr1761     O1763   2.438       .  S
Zr1761     O1785   2.434       .  S
Zr1761     O1787   2.583       .  S
Zr1762     O1765   2.398       .  S
Zr1762     O1766   2.408       .  S
Zr1762     O1788   2.435       .  S
Zr1762     O1789   2.435       .  S
Zr1762     O1764   2.439       .  S
O1763      H1800   0.990       .  S
O1764      H1795   0.991       .  S
O1764      H1809   0.990       .  S
O1766      H1792   0.965       .  S
O1767     Zr1777   2.359       .  S
O1768     Zr1777   2.383       .  S
O1768      H1793   0.961       .  S
C1769      C2136   1.479       .  S
C1770      C2199   1.510   1_545  S
C1771      C1989   1.464       .  S
O1773      C1775   1.282       .  A
O1774      C1775   1.288       .  A
C1775      C1969   1.480       .  S
O1776     Zr1777   2.441       .  S
O1776      H1805   0.990       .  S
Zr1777     O1780   2.438       .  S
Zr1777     O1781   2.435       .  S
Zr1777     O1782   2.430       .  S
O1778      C1783   1.288       .  A
O1779      H1796   0.990       .  S
O1779      H1811   0.990       .  S
O1780      H1797   0.990       .  S
O1781      H1801   0.990       .  S
O1781      H1810   0.990       .  S
O1782      C1783   1.284       .  A
C1783      C1999   1.475       .  S
O1784      H1803   0.990       .  S
O1784      H1807   0.990       .  S
O1785      H1799   0.990       .  S
O1785      H1806   0.990       .  S
O1786      C1790   1.275       .  A
O1787      C1790   1.317       .  A
O1788      H1798   0.990       .  S
O1789      H1802   0.990       .  S
C1790      C2189   1.540       .  S
Zr1813     O1821   2.379   1_545  S
Zr1813     O1822   2.405   1_545  S
Zr1813     O1823   2.419   1_545  S
Zr1813     O1824   2.406   1_545  S
O1814      H1870   0.990       .  S
O1814      H1878   0.989       .  S
O1815      C1835   1.281       .  A
O1816      C1837   1.273       .  A
O1817     Zr1827   2.563       .  S
O1817      C1836   1.311       .  A
O1818      C1837   1.264       .  A
O1820     Zr1828   2.449       .  S
O1821     Zr1826   2.395       .  S
O1821     Zr1828   2.367       .  S
O1822     Zr1827   2.388       .  S
O1822     Zr1828   2.391       .  S
O1822      H1857   0.962       .  S
O1823     Zr1826   2.397       .  S
O1823     Zr1843   2.394       .  S
O1823      H1860   0.967   1_565  S
O1824     Zr1827   2.402       .  S
O1824     Zr1843   2.383       .  S
Zr1825     O1831   2.407       .  S
Zr1825     O1832   2.391       .  S
Zr1825     O1833   2.345       .  S
Zr1825     O1834   2.402       .  S
Zr1825     O1850   2.437       .  S
Zr1825     O1844   2.397       .  S
Zr1825     O1852   2.393       .  S
Zr1825     O1840   2.469       .  S
Zr1826     O1832   2.380       .  S
Zr1826     O1833   2.375       .  S
Zr1826     O1845   2.434       .  S
Zr1826     O1838   2.431       .  S
Zr1826     O1839   2.393       .  S
Zr1827     O1831   2.395       .  S
Zr1827     O1834   2.382       .  S
Zr1827     O1829   2.435       .  S
Zr1827     O1851   2.434       .  S
Zr1827     O1853   2.566       .  S
Zr1828     O1831   2.384       .  S
Zr1828     O1832   2.426       .  S
Zr1828     O1854   2.436       .  S
Zr1828     O1855   2.438       .  S
Zr1828     O1830   2.437       .  S
O1829      H1866   0.990       .  S
O1830      H1861   0.990       .  S
O1830      H1875   0.990       .  S
O1832      H1858   0.968       .  S
O1833     Zr1843   2.361       .  S
O1834     Zr1843   2.384       .  S
O1834      H1859   0.959       .  S
C1835      C2059   1.485       .  S
C1837      C1946   1.494       .  S
O1838      H1874   0.990       .  S
O1839      C1841   1.276       .  A
O1840      C1841   1.290       .  A
C1841      C1979   1.476       .  S
O1842     Zr1843   2.437       .  S
O1842      H1871   0.990   1_565  S
Zr1843     O1846   2.436       .  S
Zr1843     O1847   2.431       .  S
Zr1843     O1848   2.415       .  S
O1844      C1849   1.278       .  A
O1845      H1862   0.989       .  S
O1845      H1877   0.991       .  S
O1846      H1863   0.990       .  S
O1847      H1867   0.990       .  S
O1847      H1876   0.988       .  S
O1848      C1849   1.279       .  A
C1849      C1956   1.446       .  S
O1850      H1869   0.990       .  S
O1850      H1873   0.990       .  S
O1851      H1865   0.990       .  S
O1851      H1872   0.990       .  S
O1852      C1856   1.277       .  A
O1853      C1856   1.313       .  A
O1854      H1864   0.990       .  S
O1855      H1868   0.990       .  S
C1856      C2039   1.521       .  S
Zr1879     O1887   2.379       .  S
Zr1879     O1888   2.399       .  S
Zr1879     O1889   2.407       .  S
Zr1879     O1890   2.394       .  S
Zr1879     O1880   2.440       .  S
Zr1879     O1881   2.435       .  S
Zr1879     O1882   2.442       .  S
Zr1879     O1885   2.404       .  S
O1880      H1936   0.991       .  S
O1880      H1944   0.990       .  S
O1881      C1901   1.283       .  A
O1882      C1903   1.280       .  A
O1883     Zr1893   2.564       .  S
O1883      C1902   1.312       .  A
O1884     Zr1892   2.394       .  S
O1884      C1903   1.274       .  A
O1885      C1902   1.279       .  A
O1886     Zr1894   2.445       .  S
O1886      C1901   1.285       .  A
O1887     Zr1892   2.401       .  S
O1887     Zr1894   2.374       .  S
O1888     Zr1893   2.396       .  S
O1888     Zr1894   2.395       .  S
O1888      H1923   0.963       .  S
O1889     Zr1892   2.411       .  S
O1889     Zr1909   2.386       .  S
O1889      H1926   0.966       .  S
O1890     Zr1893   2.384       .  S
O1890     Zr1909   2.368       .  S
Zr1891     O1897   2.406       .  S
Zr1891     O1898   2.400       .  S
Zr1891     O1899   2.366       .  S
Zr1891     O1900   2.386       .  S
Zr1891     O1916   2.438       .  S
Zr1891     O1910   2.425       .  S
Zr1891     O1918   2.382       .  S
Zr1891     O1906   2.445       .  S
Zr1892     O1898   2.391       .  S
Zr1892     O1899   2.377       .  S
Zr1892     O1911   2.442       .  S
Zr1892     O1904   2.433       .  S
Zr1892     O1905   2.441       .  S
Zr1893     O1897   2.402       .  S
Zr1893     O1900   2.381       .  S
Zr1893     O1895   2.433       .  S
Zr1893     O1917   2.439       .  S
Zr1893     O1919   2.549       .  S
Zr1894     O1897   2.398       .  S
Zr1894     O1898   2.423       .  S
Zr1894     O1920   2.431       .  S
Zr1894     O1921   2.436       .  S
Zr1894     O1896   2.438       .  S
O1895      H1932   0.990       .  S
O1896      H1927   0.990       .  S
O1896      H1941   0.990       .  S
O1898      H1924   0.963       .  S
O1899     Zr1909   2.364       .  S
O1900     Zr1909   2.385       .  S
O1900      H1925   0.967       .  S
C1901      C1966   1.482       .  S
C1902      C2019   1.508       .  S
C1903      C1949   1.453       .  S
O1904      H1940   0.990       .  S
O1905      C1907   1.283       .  A
O1906      C1907   1.285       .  A
C1907      C2029   1.492       .  S
O1908     Zr1909   2.435       .  S
O1908      H1937   0.990       .  S
Zr1909     O1912   2.434       .  S
Zr1909     O1913   2.434       .  S
Zr1909     O1914   2.390       .  S
O1910      C1915   1.282       .  A
O1911      H1928   0.990       .  S
O1911      H1943   0.990       .  S
O1912      H1929   0.990       .  S
O1913      H1933   0.990       .  S
O1913      H1942   0.990       .  S
O1914      C1915   1.274       .  A
C1915      C1959   1.444       .  S
O1916      H1935   0.989       .  S
O1916      H1939   0.990       .  S
O1917      H1931   0.989       .  S
O1917      H1938   0.990       .  S
O1918      C1922   1.276       .  A
O1919      C1922   1.309       .  A
O1920      H1930   0.989       .  S
O1921      H1934   0.990       .  S
C1922      C2009   1.511       .  S
C1945      C1946   1.428       .  A
C1945      C1950   1.412       .  A
C1945     Br1952   1.932       .  S
C1946      C1947   1.425       .  A
C1947      C1948   1.394       .  A
C1947     Br1954   1.935       .  S
C1948      C1949   1.392       .  A
C1948     Br1953   1.933       .  S
C1949      C1950   1.400       .  A
C1950     Br1951   1.925       .  S
C1955      C1956   1.408       .  A
C1955      C1960   1.395       .  A
C1955     Br1962   1.929       .  S
C1956      C1957   1.402       .  A
C1957      C1958   1.397       .  A
C1957     Br1964   1.926       .  S
C1958      C1959   1.408       .  A
C1958     Br1963   1.929       .  S
C1959      C1960   1.401       .  A
C1960     Br1961   1.930       .  S
C1965      C1966   1.411       .  A
C1965      C1970   1.412       .  A
C1965     Br1972   1.931       .  S
C1966      C1967   1.413       .  A
C1967      C1968   1.406       .  A
C1967     Br1974   1.929       .  S
C1968      C1969   1.408       .  A
C1968     Br1973   1.933       .  S
C1969      C1970   1.415       .  A
C1970     Br1971   1.931       .  S
C1975      C1976   1.410       .  A
C1975      C1980   1.413       .  A
C1975     Br1982   1.929       .  S
C1976      C1977   1.418       .  A
C1977      C1978   1.405       .  A
C1977     Br4288   1.930   1_455  S
C1978      C1979   1.402       .  A
C1978     Br1983   1.931       .  S
C1979      C1980   1.413       .  A
C1980     Br1981   1.927       .  S
Br1984     C4281   1.930       .  S
C1985      C1986   1.401       .  A
C1985      C1990   1.400       .  A
C1985     Br1992   1.925       .  S
C1986      C1987   1.409       .  A
C1987      C1988   1.402       .  A
C1987     Br1994   1.929       .  S
C1988      C1989   1.406       .  A
C1988     Br1993   1.926       .  S
C1989      C1990   1.411       .  A
C1990     Br1991   1.929       .  S
C1995      C1996   1.411       .  A
C1995      C2000   1.403       .  A
C1995     Br2002   1.928       .  S
C1996      C1997   1.403       .  A
C1997      C1998   1.408       .  A
C1997     Br2004   1.929       .  S
C1998      C1999   1.416       .  A
C1998     Br2003   1.925       .  S
C1999      C2000   1.405       .  A
C2000     Br2001   1.930       .  S
C2005      C2006   1.412       .  A
C2005      C2010   1.421       .  A
C2005     Br2012   1.930       .  S
C2006      C2007   1.422       .  A
C2007      C2008   1.422       .  A
C2007     Br2014   1.930       .  S
C2008      C2009   1.412       .  A
C2008     Br2013   1.928       .  S
C2009      C2010   1.423       .  A
C2010     Br2011   1.928       .  S
C2015      C2016   1.413       .  A
C2015      C2020   1.425       .  A
C2015     Br2022   1.927       .  S
C2016      C2017   1.424       .  A
C2017      C2018   1.419       .  A
C2017     Br2024   1.923       .  S
C2018      C2019   1.408       .  A
C2018     Br2023   1.932       .  S
C2019      C2020   1.420       .  A
C2020     Br2021   1.917       .  S
C2025      C2026   1.409       .  A
C2025      C2030   1.415       .  A
C2025     Br2032   1.929       .  S
C2026      C2027   1.414       .  A
C2027      C2028   1.408       .  A
C2027     Br4338   1.933   1_455  S
C2028      C2029   1.411       .  A
C2028     Br2033   1.930       .  S
C2029      C2030   1.417       .  A
C2030     Br2031   1.929       .  S
Br2034     C4331   1.931       .  S
C2035      C2036   1.410       .  A
C2035      C2040   1.422       .  A
C2035     Br2042   1.928       .  S
C2036      C2037   1.422       .  A
C2037      C2038   1.424       .  A
C2037     Br2044   1.931       .  S
C2038      C2039   1.414       .  A
C2038     Br2043   1.926       .  S
C2039      C2040   1.426       .  A
C2040     Br2041   1.929       .  S
C2045      C2046   1.421       .  A
C2045      C2050   1.426       .  A
C2045     Br2052   1.928       .  S
C2046      C2047   1.409       .  A
C2047      C2048   1.420       .  A
C2047     Br2054   1.932       .  S
C2048      C2049   1.427       .  A
C2048     Br2053   1.931       .  S
C2049      C2050   1.413       .  A
C2055      C2056   1.411       .  A
C2055      C2060   1.409       .  A
C2055     Br2062   1.930       .  S
C2056      C2057   1.403       .  A
C2057      C2058   1.404       .  A
C2057     Br2064   1.930       .  S
C2058      C2059   1.416       .  A
C2058     Br2063   1.928       .  S
C2059      C2060   1.414       .  A
C2060     Br2061   1.930       .  S
C2065      C2066   1.402       .  A
C2065      C2070   1.406       .  A
C2065     Br2072   1.926       .  S
C2066      C2067   1.412       .  A
C2067      C2068   1.403       .  A
C2067     Br2074   1.927       .  S
C2068      C2069   1.402       .  A
C2068     Br2073   1.927       .  S
C2069      C2070   1.415       .  A
C2070     Br2071   1.927       .  S
C2075      C2076   1.422       .  A
C2075      C2080   1.408       .  A
C2075     Br2082   1.930       .  S
C2076      C2077   1.414       .  A
C2077      C2078   1.400       .  A
C2077     Br2084   1.939       .  S
C2078      C2079   1.409       .  A
C2078     Br2083   1.931       .  S
C2079      C2080   1.404       .  A
C2080     Br2081   1.931       .  S
C2085      C2086   1.403       .  A
C2085      C2090   1.411       .  A
C2085     Br2092   1.926       .  S
C2086      C2087   1.390       .  A
C2087      C2088   1.389       .  A
C2087     Br2094   1.935       .  S
C2088      C2089   1.420       .  A
C2088     Br2093   1.930       .  S
C2089      C2090   1.422       .  A
C2090     Br2091   1.926       .  S
C2095      C2096   1.406       .  A
C2095      C2100   1.405       .  A
C2095     Br2102   1.933       .  S
C2096      C2097   1.405       .  A
C2097      C2098   1.402       .  A
C2097     Br2104   1.937       .  S
C2098      C2099   1.422       .  A
C2098     Br2103   1.937       .  S
C2099      C2100   1.420       .  A
C2100     Br2101   1.937       .  S
C2105      C2106   1.417       .  A
C2105      C2110   1.406       .  A
C2105     Br4416   1.929       .  S
C2106      C2107   1.408       .  A
C2107      C2108   1.409       .  A
C2107     Br2114   1.930       .  S
C2108      C2109   1.412       .  A
C2108     Br2113   1.928       .  S
C2109      C2110   1.403       .  A
C2110     Br4415   1.930       .  S
Br2111     C4414   1.928   1_455  S
Br2112     C4409   1.930   1_455  S
C2115      C2116   1.418       .  A
C2115      C2120   1.421       .  A
C2115     Br2122   1.926       .  S
C2116      C2117   1.407       .  A
C2117      C2118   1.415       .  A
C2117     Br2124   1.928       .  S
C2118      C2119   1.416       .  A
C2118     Br2123   1.926       .  S
C2119      C3678   1.496       .  S
C2119      C2120   1.411       .  A
C2120     Br4425   1.925       .  S
Br2121     C4424   1.926       .  S
C2125      C2126   1.433       .  A
C2125      C2130   1.421       .  A
C2125     Br2132   1.934       .  S
C2126      C2127   1.413       .  A
C2127      C2128   1.423       .  A
C2127     Br2134   1.927       .  S
C2128      C2129   1.422       .  A
C2128     Br2133   1.924       .  S
C2129      C2130   1.404       .  A
C2130     Br2131   1.930   1_565  S
C2135      C2136   1.409       .  A
C2135      C2140   1.410       .  A
C2135     Br2142   1.924       .  S
C2136      C2137   1.414       .  A
C2137      C2138   1.402       .  A
C2138      C2139   1.403       .  A
C2138     Br2143   1.931       .  S
C2139      C2140   1.411       .  A
C2140     Br2141   1.931       .  S
C2145      C2146   1.405       .  A
C2145      C2150   1.401       .  A
C2145     Br2152   1.929       .  S
C2146      C2147   1.412       .  A
C2147      C2148   1.413       .  A
C2147     Br2154   1.928       .  S
C2148      C2149   1.413       .  A
C2148     Br2153   1.926       .  S
C2149      C2150   1.413       .  A
C2150     Br2151   1.930       .  S
C2155      C2156   1.410       .  A
C2155      C2160   1.410       .  A
C2155     Br2162   1.933       .  S
C2156      C2157   1.418       .  A
C2157      C2158   1.410       .  A
C2157     Br2164   1.934       .  S
C2158      C2159   1.414       .  A
C2158     Br2163   1.933       .  S
C2159      C2160   1.417       .  A
C2160     Br2161   1.931       .  S
C2165      C2166   1.408       .  A
C2165      C2170   1.402       .  A
C2165     Br2172   1.926       .  S
C2166      C2167   1.417       .  A
C2167      C2168   1.401       .  A
C2167     Br2174   1.929       .  S
C2168      C2169   1.397       .  A
C2168     Br2173   1.926       .  S
C2169      C2170   1.406       .  A
C2170     Br2171   1.928       .  S
C2175      C2176   1.411       .  A
C2175      C2180   1.398       .  A
C2175     Br2182   1.929       .  S
C2176      C2177   1.405       .  A
C2177      C2178   1.398       .  A
C2177     Br2184   1.933       .  S
C2178      C2179   1.409       .  A
C2178     Br2183   1.930       .  S
C2179      C2180   1.400       .  A
C2180     Br2181   1.933       .  S
C2185      C2186   1.408       .  A
C2185      C2190   1.428       .  A
C2185     Br2192   1.931       .  S
C2186      C2187   1.423       .  A
C2187      C2188   1.427       .  A
C2187     Br2194   1.926       .  S
C2188      C2189   1.415       .  A
C2188     Br2193   1.928       .  S
C2189      C2190   1.440       .  A
C2190     Br2191   1.934       .  S
C2195      C2196   1.413       .  A
C2195      C2200   1.424       .  A
C2195     Br2202   1.929       .  S
C2196      C2197   1.437       .  A
C2197      C2198   1.422       .  A
C2197     Br2204   1.934       .  S
C2198      C2199   1.405       .  A
C2198     Br2203   1.933       .  S
C2199      C2200   1.422       .  A
C2200     Br2201   1.928       .  S
C2205      C2206   1.411       .  A
C2205      C2210   1.410       .  A
C2205     Br2212   1.920       .  S
C2206      C2207   1.414       .  A
C2207      C2208   1.413       .  A
C2207     Br2214   1.933       .  S
C2208      C2209   1.420       .  A
C2208     Br2213   1.935       .  S
C2209      C2210   1.417       .  A
C2210     Br2211   1.932       .  S
C2215      C2216   1.426       .  A
C2215      C2220   1.425       .  A
C2215     Br2222   1.920       .  S
C2216      C2217   1.408       .  A
C2217      C2218   1.427       .  A
C2217     Br2224   1.931       .  S
C2218      C2219   1.433       .  A
C2218     Br2223   1.929       .  S
C2219      C2220   1.412       .  A
C2220     Br2221   1.932       .  S
C2225      C2226   1.412       .  A
C2225      C2230   1.421       .  A
C2225     Br2232   1.929       .  S
C2226      C2227   1.420       .  A
C2227      C2228   1.425       .  A
C2227     Br2234   1.926       .  S
C2228      C2229   1.414       .  A
C2228     Br2233   1.927       .  S
C2229      C2230   1.419       .  A
C2230     Br2231   1.926       .  S
C2235      C2236   1.410       .  A
C2235      C2240   1.408       .  A
C2235     Br2242   1.929       .  S
C2236      C2237   1.405       .  A
C2237      C2238   1.407       .  A
C2237     Br2244   1.930       .  S
C2238      C2239   1.420       .  A
C2238     Br2243   1.931       .  S
C2239      C2240   1.413       .  A
C2240     Br2241   1.931   1_556  S
C2245      C2246   1.417       .  A
C2245      C2250   1.410       .  A
C2245     Br2252   1.928       .  S
C2246      C2247   1.411       .  A
C2247      C2248   1.408       .  A
C2247     Br2254   1.930       .  S
C2248      C2249   1.415       .  A
C2248     Br4557   1.932       .  S
C2249      C2250   1.404       .  A
C2250     Br2251   1.930       .  S
Br2253     C4552   1.932   1_455  S
C2255      C2256   1.408       .  A
C2255      C2260   1.403       .  A
C2255     Br2262   1.930       .  S
C2256      C2257   1.417       .  A
C2257      C2258   1.409       .  A
C2257     Br2264   1.928       .  S
C2258      C2259   1.404       .  A
C2258     Br2263   1.927       .  S
C2259      C2260   1.412       .  A
C2260     Br2261   1.930       .  S
C2265      C2266   1.403       .  A
C2265      C2270   1.401       .  A
C2265     Br2272   1.929       .  S
C2266      C2267   1.412       .  A
C2267      C2268   1.403       .  A
C2267     Br2274   1.929       .  S
C2268      C2269   1.404       .  A
C2268     Br2273   1.928       .  S
C2269      C2270   1.413       .  A
C2270     Br2271   1.930       .  S
C2275      C2276   1.413       .  A
C2275      C2280   1.406       .  A
C2275     Br2282   1.934       .  S
C2276      C2277   1.421       .  A
C2277      C2278   1.404       .  A
C2277     Br2284   1.931       .  S
C2278      C2279   1.404       .  A
C2278     Br2283   1.936       .  S
C2279      C2280   1.411       .  A
C2280     Br2281   1.933       .  S
C2285      C2286   1.411       .  A
C2285      C2290   1.417       .  A
C2285     Br2292   1.929       .  S
C2286      C3480   1.499       .  S
C2286      C2287   1.420   1_554  A
C2287      C2288   1.419   1_556  A
C2287     Br2294   1.929       .  S
C2288      C2289   1.411       .  A
C2288     Br2293   1.929   1_554  S
C2289      C2290   1.421       .  A
C2290     Br2291   1.934       .  S
C2295      C2296   1.423   1_556  A
C2295      C2300   1.416       .  A
C2295     Br2302   1.933       .  S
C2296      C2297   1.410       .  A
C2297      C2298   1.424       .  A
C2297     Br2304   1.925       .  S
C2298      C2299   1.422       .  A
C2298     Br2303   1.926       .  S
C2299      C2300   1.407   1_554  A
C2300     Br2301   1.932       .  S
Zr2305     O2313   2.380       .  S
Zr2305     O2314   2.398   1_556  S
Zr2305     O2315   2.412       .  S
Zr2305     O2316   2.415       .  S
O2306      H2362   0.988   1_556  S
O2306      H2370   0.991       .  S
O2307      C2327   1.289       .  A
O2308      C2329   1.280       .  A
O2309     Zr2319   2.552   1_554  S
O2309      C2328   1.303       .  A
O2310      C2329   1.278       .  A
O2312     Zr2320   2.416   1_554  S
O2313     Zr2318   2.399       .  S
O2313     Zr2320   2.389       .  S
O2314     Zr2319   2.388   1_554  S
O2314     Zr2320   2.390   1_554  S
O2314      H2349   0.967       .  S
O2315     Zr2318   2.400       .  S
O2315     Zr2335   2.399       .  S
O2315      H2352   0.964       .  S
O2316     Zr2319   2.390       .  S
O2316     Zr2335   2.388       .  S
Zr2317     O2323   2.411       .  S
Zr2317     O2324   2.390       .  S
Zr2317     O2326   2.393       .  S
Zr2317     O2342   2.447       .  S
Zr2317     O2336   2.407       .  S
Zr2317     O2344   2.390       .  S
Zr2317     O2332   2.425       .  S
Zr2317     O2325   2.287       .  S
Zr2318     O2324   2.379       .  S
Zr2318     O2337   2.451       .  S
Zr2318     O2330   2.448       .  S
Zr2318     O2331   2.424       .  S
Zr2318     O2325   2.314       .  S
Zr2319     O2323   2.407       .  S
Zr2319     O2326   2.387       .  S
Zr2319     O2321   2.434       .  S
Zr2319     O2343   2.438   1_556  S
Zr2319     O2345   2.540   1_556  S
Zr2320     O2323   2.392       .  S
Zr2320     O2324   2.414       .  S
Zr2320     O2346   2.436   1_556  S
Zr2320     O2347   2.435   1_556  S
Zr2320     O2322   2.442       .  S
O2321      H2358   0.990   1_556  S
O2322      H2353   0.992   1_556  S
O2322      H2367   0.989       .  S
O2324      H2350   0.970       .  S
O2325     Zr2335   2.294       .  S
O2326     Zr2335   2.375       .  S
O2326      H2351   0.965       .  S
C2327      C3401   1.479       .  S
C2329      C3421   1.463       .  S
O2330      H2366   0.991       .  S
O2331      C2333   1.282       .  A
O2332      C2333   1.284       .  A
C2333      C3408   1.485       .  S
O2334     Zr2335   2.448       .  S
O2334      H2363   0.990       .  S
Zr2335     O2338   2.425       .  S
Zr2335     O2339   2.452       .  S
Zr2335     O2340   2.425       .  S
O2336      C2341   1.277       .  A
O2337      H2354   0.991       .  S
O2337      H2369   0.991       .  S
O2338      H2355   0.989       .  S
O2339      H2359   0.991       .  S
O2339      H2368   0.991       .  S
O2340      C2341   1.282       .  A
C2341      C3428   1.490       .  S
O2342      H2361   0.989       .  S
O2342      H2365   0.989       .  S
O2343      H2357   0.990       .  S
O2343      H2364   0.990       .  S
O2344      C2348   1.276       .  A
O2345      C2348   1.308   1_554  A
O2346      H2356   0.990       .  S
O2347      H2360   0.989   1_554  S
C2348      C3451   1.497   1_556  S
Zr2371     O3531   2.377       .  S
Zr2371     O3532   2.398       .  S
Zr2371     O3533   2.415       .  S
Zr2371     O3534   2.414       .  S
Zr2371     O2372   2.447   1_565  S
Zr2371     O2373   2.467   1_565  S
Zr2371     O2374   2.453   1_565  S
Zr2371     O2377   2.392       .  S
O2372      H2428   0.990       .  S
O2372      H2436   0.991       .  S
O2373      C2393   1.288       .  A
O2374      C2395   1.282       .  A
O2375     Zr2385   2.573       .  S
O2375      C2394   1.313       .  A
O2376     Zr3536   2.391   1_545  S
O2376      C2395   1.274       .  A
O2377      C3546   1.274       .  A
O2378     Zr3538   2.403       .  S
O2378      C2393   1.278   1_565  A
O2379     Zr3523   2.373       .  S
O2379     Zr2384   2.394       .  S
O2379     Zr2386   2.387       .  S
O2380     Zr3523   2.398       .  S
O2380     Zr2385   2.399       .  S
O2380     Zr2386   2.397       .  S
O2380      H2415   0.964       .  S
O2381     Zr3523   2.422       .  S
O2381     Zr2384   2.400       .  S
O2381     Zr2401   2.406       .  S
O2381      H2418   0.964       .  S
O2382     Zr3523   2.419       .  S
O2382     Zr2385   2.394       .  S
O2382     Zr2401   2.388       .  S
Zr2383     O2389   2.403       .  S
Zr2383     O2390   2.392       .  S
Zr2383     O2391   2.361       .  S
Zr2383     O2392   2.393       .  S
Zr2383     O2408   2.441       .  S
Zr2383     O2402   2.419       .  S
Zr2383     O2410   2.373       .  S
Zr2383     O2398   2.446       .  S
Zr2384     O2390   2.378       .  S
Zr2384     O2391   2.386       .  S
Zr2384     O2403   2.443       .  S
Zr2384     O2396   2.434       .  S
Zr2384     O3528   2.395       .  S
Zr2384     O2397   2.401       .  S
Zr2385     O2389   2.406       .  S
Zr2385     O2392   2.383       .  S
Zr2385     O2387   2.432       .  S
Zr2385     O2409   2.436       .  S
Zr2385     O2411   2.562       .  S
Zr2386     O2389   2.397       .  S
Zr2386     O2390   2.410       .  S
Zr2386     O2412   2.435       .  S
Zr2386     O2413   2.437       .  S
Zr2386     O2388   2.444       .  S
Zr2386     O3530   2.418       .  S
O2387      H2424   0.990       .  S
O2388      H2419   0.990       .  S
O2388      H2433   0.990       .  S
O2390      H2416   0.960       .  S
O2391     Zr2401   2.370       .  S
O2392     Zr2401   2.375       .  S
O2392      H2417   0.965       .  S
C2393      C3361   1.494       .  S
C2394      O3529   1.273       .  A
C2394      C4520   1.510       .  S
C2395      C3418   1.469       .  S
O2396      H2432   0.990       .  S
O2397      C2399   1.276       .  A
O2398      C2399   1.286       .  A
C2399      C3388   1.471       .  S
O2400     Zr2401   2.442       .  S
O2400      H2429   0.990       .  S
Zr2401     O2404   2.438       .  S
Zr2401     O2405   2.438       .  S
Zr2401     O2406   2.439       .  S
O2402      C2407   1.282       .  A
O2403      H2420   0.991       .  S
O2403      H2435   0.989       .  S
O2404      H2421   0.990       .  S
O2405      H2425   0.989       .  S
O2405      H2434   0.989       .  S
O2406      C2407   1.285       .  A
C2407      C3431   1.476       .  S
O2408      H2427   0.991       .  S
O2408      H2431   0.988       .  S
O2409      H2423   0.990       .  S
O2409      H2430   0.990       .  S
O2410      C2414   1.273       .  A
O2411      C2414   1.311       .  A
O2412      H2422   0.990       .  S
O2413      H2426   0.990       .  S
C2414      C3381   1.511       .  S
Zr2437     O2445   2.379       .  S
Zr2437     O2446   2.401       .  S
Zr2437     O2447   2.414       .  S
Zr2437     O2448   2.410       .  S
Zr2437     O2438   2.448       .  S
Zr2437     O2439   2.461       .  S
Zr2437     O2440   2.458       .  S
Zr2437     O2443   2.381       .  S
O2438      H2494   0.990       .  S
O2438      H2502   0.990       .  S
O2439      C2459   1.286       .  A
O2440      C2461   1.284       .  A
O2441     Zr2451   2.581       .  S
O2441      C2460   1.315       .  A
O2442     Zr2450   2.401       .  S
O2442      C2461   1.278       .  A
O2443      C2460   1.273       .  A
O2444     Zr2452   2.420       .  S
O2444      C2459   1.281       .  A
O2445     Zr2450   2.392       .  S
O2445     Zr2452   2.392       .  S
O2446     Zr2451   2.399       .  S
O2446     Zr2452   2.397       .  S
O2446      H2481   0.962       .  S
O2447     Zr2450   2.405       .  S
O2447     Zr2467   2.388       .  S
O2447      H2484   0.964       .  S
O2448     Zr2451   2.392       .  S
O2448     Zr2467   2.382       .  S
Zr2449     O2455   2.402       .  S
Zr2449     O2456   2.393       .  S
Zr2449     O2457   2.368       .  S
Zr2449     O2458   2.398       .  S
Zr2449     O2474   2.447       .  S
Zr2449     O2468   2.441       .  S
Zr2449     O2476   2.372       .  S
Zr2449     O2464   2.449       .  S
Zr2450     O2456   2.376       .  S
Zr2450     O2457   2.401       .  S
Zr2450     O2469   2.447       .  S
Zr2450     O2462   2.434       .  S
Zr2450     O2463   2.415       .  S
Zr2451     O2455   2.402       .  S
Zr2451     O2458   2.386       .  S
Zr2451     O2453   2.439       .  S
Zr2451     O2475   2.435       .  S
Zr2451     O2477   2.572       .  S
Zr2452     O2455   2.389       .  S
Zr2452     O2456   2.406       .  S
Zr2452     O2478   2.435       .  S
Zr2452     O2479   2.437       .  S
Zr2452     O2454   2.439       .  S
O2453      H2490   0.989       .  S
O2454      H2485   0.991       .  S
O2454      H2499   0.989       .  S
O2456      H2482   0.971       .  S
O2457     Zr2467   2.381       .  S
O2458     Zr2467   2.379       .  S
O2458      H2483   0.966       .  S
C2459      C3301   1.486       .  S
C2460      C3338   1.516       .  S
C2461      C3321   1.473       .  S
O2462      H2498   0.990       .  S
O2463      C2465   1.279       .  A
O2464      C2465   1.285       .  A
C2465      C3311   1.492       .  S
O2466     Zr2467   2.437       .  S
O2466      H2495   0.990       .  S
Zr2467     O2470   2.437       .  S
Zr2467     O2471   2.439       .  S
Zr2467     O2472   2.413       .  S
O2468      C2473   1.284       .  A
O2469      H2486   0.990       .  S
O2469      H2501   0.990       .  S
O2470      H2487   0.990       .  S
O2471      H2491   0.990       .  S
O2471      H2500   0.990       .  S
O2472      C2473   1.279       .  A
C2473      C3328   1.462       .  S
O2474      H2493   0.990       .  S
O2474      H2497   0.991       .  S
O2475      H2489   0.990       .  S
O2475      H2496   0.990       .  S
O2476      C2480   1.272       .  A
O2477      C2480   1.313       .  A
O2478      H2488   0.990       .  S
O2479      H2492   0.990       .  S
C2480      C3348   1.520       .  S
Zr2503     O2511   2.381       .  S
Zr2503     O2512   2.390       .  S
Zr2503     O2513   2.413       .  S
Zr2503     O2514   2.402       .  S
O2504      H2560   0.990       .  S
O2504      H2568   0.990       .  S
O2505      C2525   1.287       .  A
O2506      C2527   1.279       .  A
O2507     Zr2517   2.559       .  S
O2507      C2526   1.307       .  A
O2508      C2527   1.277       .  A
O2510     Zr2518   2.424       .  S
O2511     Zr2516   2.392       .  S
O2511     Zr2518   2.390       .  S
O2512     Zr2517   2.380       .  S
O2512     Zr2518   2.395       .  S
O2512      H2547   0.964       .  S
O2513     Zr2516   2.400       .  S
O2513     Zr2533   2.388       .  S
O2513      H2550   0.963       .  S
O2514     Zr2517   2.386       .  S
O2514     Zr2533   2.380       .  S
Zr2515     O2521   2.395       .  S
Zr2515     O2522   2.394       .  S
Zr2515     O2523   2.365       .  S
Zr2515     O2524   2.386       .  S
Zr2515     O2540   2.440       .  S
Zr2515     O2534   2.413       .  S
Zr2515     O2542   2.368       .  S
Zr2515     O2530   2.419       .  S
Zr2516     O2522   2.385       .  S
Zr2516     O2523   2.392       .  S
Zr2516     O2535   2.444       .  S
Zr2516     O2528   2.436       .  S
Zr2516     O2529   2.434       .  S
Zr2517     O2521   2.401       .  S
Zr2517     O2524   2.380       .  S
Zr2517     O2519   2.434       .  S
Zr2517     O2541   2.429       .  S
Zr2517     O2543   2.548       .  S
Zr2518     O2521   2.387       .  S
Zr2518     O2522   2.409       .  S
Zr2518     O2544   2.435       .  S
Zr2518     O2545   2.438       .  S
Zr2518     O2520   2.439       .  S
O2519      H2556   0.990       .  S
O2520      H2551   0.991       .  S
O2520      H2565   0.989       .  S
O2522      H2548   0.964       .  S
O2523     Zr2533   2.367       .  S
O2524     Zr2533   2.374       .  S
O2524      H2549   0.959       .  S
C2525      C3258   1.483       .  S
C2527      C3318   1.455       .  S
O2528      H2564   0.990       .  S
O2529      C2531   1.283       .  A
O2530      C2531   1.281       .  A
C2531      C3291   1.476       .  S
O2532     Zr2533   2.438       .  S
O2532      H2561   0.990       .  S
Zr2533     O2536   2.436       .  S
Zr2533     O2537   2.434       .  S
Zr2533     O2538   2.420       .  S
O2534      C2539   1.279       .  A
O2535      H2552   0.990       .  S
O2535      H2567   0.991       .  S
O2536      H2553   0.990       .  S
O2537      H2557   0.990       .  S
O2537      H2566   0.990       .  S
O2538      C2539   1.280       .  A
C2539      C3331   1.457       .  S
O2540      H2559   0.990       .  S
O2540      H2563   0.990       .  S
O2541      H2555   0.990       .  S
O2541      H2562   0.990       .  S
O2542      C2546   1.272       .  A
O2543      C2546   1.309       .  A
O2544      H2554   0.990       .  S
O2545      H2558   0.991       .  S
C2546      C3278   1.516       .  S
Zr2569     O3729   2.371       .  S
Zr2569     O3730   2.392       .  S
Zr2569     O3731   2.409       .  S
Zr2569     O3732   2.400       .  S
Zr2569     O2570   2.445       .  S
Zr2569     O2571   2.441       .  S
Zr2569     O2572   2.424       .  S
Zr2569     O2575   2.375       .  S
O2570      H2626   0.991       .  S
O2570      H2634   0.991       .  S
O2571      C2591   1.283       .  A
O2572      C2593   1.276       .  A
O2573     Zr2583   2.564       .  S
O2573      C3744   1.311       .  A
O2574     Zr3734   2.393       .  S
O2574      C2593   1.275       .  A
O2575      C2592   1.273       .  A
O2576     Zr3736   2.420       .  S
O2576      C2591   1.281       .  A
O2577     Zr3721   2.368       .  S
O2577     Zr2582   2.393   1_565  S
O2577     Zr2584   2.381   1_565  S
O2578     Zr3721   2.392   1_545  S
O2578     Zr2583   2.386       .  S
O2578     Zr2584   2.399       .  S
O2578      H2613   0.967       .  S
O2579     Zr3721   2.409   1_545  S
O2579     Zr2582   2.410       .  S
O2579     Zr2599   2.405       .  S
O2579      H2616   0.965   1_545  S
O2580     Zr3721   2.406   1_545  S
O2580     Zr2583   2.389       .  S
O2580     Zr2599   2.377       .  S
Zr2581     O2587   2.397       .  S
Zr2581     O2588   2.387       .  S
Zr2581     O2589   2.360       .  S
Zr2581     O2590   2.393       .  S
Zr2581     O2606   2.441       .  S
Zr2581     O2600   2.401       .  S
Zr2581     O2608   2.390       .  S
Zr2581     O2596   2.432       .  S
Zr2582     O2588   2.391       .  S
Zr2582     O2589   2.376       .  S
Zr2582     O2601   2.443       .  S
Zr2582     O2594   2.436   1_545  S
Zr2582     O3726   2.394   1_545  S
Zr2582     O2595   2.424       .  S
Zr2583     O2587   2.409       .  S
Zr2583     O2590   2.388       .  S
Zr2583     O2585   2.436       .  S
Zr2583     O2607   2.437       .  S
Zr2583     O2609   2.547       .  S
Zr2584     O2587   2.389       .  S
Zr2584     O2588   2.413       .  S
Zr2584     O2610   2.434       .  S
Zr2584     O2611   2.438       .  S
Zr2584     O2586   2.438       .  S
Zr2584     O3728   2.421       .  S
O2585      H2622   0.990       .  S
O2586      H2617   0.990       .  S
O2586      H2631   0.990   1_545  S
O2588      H2614   0.962       .  S
O2589     Zr2599   2.364       .  S
O2590     Zr2599   2.381       .  S
O2590      H2615   0.965       .  S
C2591      C3308   1.485       .  S
C2592      O3725   1.309       .  A
C2592      C3281   1.499       .  S
C2593      C3238   1.448       .  S
O2594      H3782   0.990   1_565  S
O2595      C2597   1.281       .  A
O2596      C2597   1.284       .  A
C2597      C3398   1.476       .  S
O2598     Zr2599   2.437       .  S
O2598      H2627   0.990       .  S
Zr2599     O2602   2.435       .  S
Zr2599     O2603   2.438       .  S
Zr2599     O2604   2.418       .  S
O2600      C2605   1.276       .  A
O2601      H2618   0.989   1_545  S
O2601      H2633   0.991   1_545  S
O2602      H2619   0.990       .  S
O2603      H2623   0.990       .  S
O2603      H2632   0.990       .  S
O2604      C2605   1.281       .  A
C2605      C3251   1.478       .  S
O2606      H2625   0.989       .  S
O2606      H2629   0.988       .  S
O2607      H2621   0.990       .  S
O2607      H2628   0.990       .  S
O2608      C2612   1.276       .  A
O2609      C2612   1.308       .  A
O2610      H2620   0.990       .  S
O2611      H2624   0.990       .  S
C2612      C3268   1.505       .  S
H2630      O3746   0.990       .  S
Zr2635     O2643   2.373       .  S
Zr2635     O2644   2.401       .  S
Zr2635     O2645   2.415       .  S
Zr2635     O2646   2.410       .  S
Zr2635     O2636   2.442       .  S
Zr2635     O2637   2.436       .  S
Zr2635     O2638   2.450       .  S
Zr2635     O2641   2.370       .  S
O2636      H2692   0.988       .  S
O2636      H2700   0.992       .  S
O2637      C2657   1.283   1_554  A
O2638      C2659   1.278       .  A
O2639     Zr2649   2.558       .  S
O2639      C2658   1.310       .  A
O2640     Zr2648   2.399       .  S
O2640      C2659   1.267       .  A
O2641      C2658   1.272       .  A
O2642     Zr2650   2.437       .  S
O2642      C2657   1.285   1_554  A
O2643     Zr2648   2.398       .  S
O2643     Zr2650   2.373       .  S
O2644     Zr2649   2.387       .  S
O2644     Zr2650   2.394       .  S
O2644      H2679   0.961       .  S
O2645     Zr2648   2.394       .  S
O2645     Zr2665   2.406       .  S
O2645      H2682   0.965       .  S
O2646     Zr2649   2.391       .  S
O2646     Zr2665   2.381       .  S
Zr2647     O2653   2.401       .  S
Zr2647     O2654   2.383       .  S
Zr2647     O2655   2.346       .  S
Zr2647     O2656   2.398       .  S
Zr2647     O2672   2.442       .  S
Zr2647     O2666   2.388       .  S
Zr2647     O2674   2.366       .  S
Zr2647     O2662   2.446       .  S
Zr2648     O2654   2.379       .  S
Zr2648     O2655   2.371       .  S
Zr2648     O2667   2.438       .  S
Zr2648     O2660   2.436       .  S
Zr2648     O2661   2.405       .  S
Zr2649     O2653   2.400       .  S
Zr2649     O2656   2.380       .  S
Zr2649     O2651   2.436       .  S
Zr2649     O2673   2.433   1_554  S
Zr2649     O2675   2.547       .  S
Zr2650     O2653   2.391       .  S
Zr2650     O2654   2.410       .  S
Zr2650     O2676   2.435   1_554  S
Zr2650     O2677   2.436       .  S
Zr2650     O2652   2.436       .  S
O2651      H2688   0.990       .  S
O2652      H2683   0.990       .  S
O2652      H2697   0.990       .  S
O2654      H2680   0.966       .  S
O2655     Zr2665   2.358       .  S
O2656     Zr2665   2.379       .  S
O2656      H2681   0.963       .  S
C2657      C3391   1.485       .  S
C2658      C3448   1.505       .  S
C2659      C3241   1.490       .  S
O2660      H2696   0.990       .  S
O2661      C2663   1.279       .  A
O2662      C2663   1.287       .  A
C2663      C3261   1.469       .  S
O2664     Zr2665   2.434       .  S
O2664      H2693   0.990       .  S
Zr2665     O2668   2.435       .  S
Zr2665     O2669   2.432       .  S
Zr2665     O2670   2.441       .  S
O2666      C2671   1.277       .  A
O2667      H2684   0.990       .  S
O2667      H2699   0.990       .  S
O2668      H2685   0.990       .  S
O2669      H2689   0.990       .  S
O2669      H2698   0.989       .  S
O2670      C2671   1.286       .  A
C2671      C3248   1.462       .  S
O2672      H2691   0.989       .  S
O2672      H2695   0.990       .  S
O2673      H2687   0.990       .  S
O2673      H2694   0.990       .  S
O2674      C2678   1.273       .  A
O2675      C2678   1.309       .  A
O2676      H2686   0.991       .  S
O2677      H2690   0.990       .  S
C2678      C3441   1.500       .  S
Zr2701     O2709   2.380       .  S
Zr2701     O2710   2.395       .  S
Zr2701     O2711   2.416       .  S
Zr2701     O2712   2.405       .  S
Zr2701     O2702   2.448       .  S
Zr2701     O2703   2.462       .  S
Zr2701     O2704   2.441       .  S
Zr2701     O2707   2.385       .  S
O2702      H2758   0.989       .  S
O2702      H2766   0.992       .  S
O2703      C2723   1.287       .  A
O2704      C2725   1.281       .  A
O2705     Zr2715   2.570       .  S
O2705      C2724   1.311       .  A
O2706     Zr2714   2.416       .  S
O2706      C2725   1.280       .  A
O2707      C2724   1.272       .  A
O2708     Zr2716   2.407       .  S
O2708      C2723   1.278       .  A
O2709     Zr2714   2.390       .  S
O2709     Zr2716   2.392       .  S
O2710     Zr2715   2.387       .  S
O2710     Zr2716   2.395       .  S
O2710      H2745   0.964       .  S
O2711     Zr2714   2.401       .  S
O2711     Zr2731   2.398       .  S
O2711      H2748   0.960       .  S
O2712     Zr2715   2.386       .  S
O2712     Zr2731   2.387       .  S
Zr2713     O2719   2.396       .  S
Zr2713     O2720   2.399       .  S
Zr2713     O2721   2.367       .  S
Zr2713     O2722   2.397       .  S
Zr2713     O2738   2.438       .  S
Zr2713     O2732   2.407       .  S
Zr2713     O2740   2.386       .  S
Zr2713     O2728   2.443       .  S
Zr2714     O2720   2.388       .  S
Zr2714     O2721   2.395       .  S
Zr2714     O2733   2.445       .  S
Zr2714     O2726   2.436       .  S
Zr2714     O2727   2.420       .  S
Zr2715     O2719   2.399       .  S
Zr2715     O2722   2.378       .  S
Zr2715     O2717   2.434       .  S
Zr2715     O2739   2.434       .  S
Zr2715     O2741   2.554       .  S
Zr2716     O2719   2.381       .  S
Zr2716     O2720   2.412       .  S
Zr2716     O2742   2.434       .  S
Zr2716     O2743   2.436       .  S
Zr2716     O2718   2.441       .  S
O2717      H2754   0.990       .  S
O2718      H2749   0.990       .  S
O2718      H2763   0.991       .  S
O2720      H2746   0.965       .  S
O2721     Zr2731   2.369       .  S
O2722     Zr2731   2.380       .  S
O2722      H2747   0.963       .  S
C2723      C3411   1.475       .  S
C2724      C3378   1.504       .  S
C2725      C3218   1.466       .  S
O2726      H2762   0.990       .  S
O2727      C2729   1.280       .  A
O2728      C2729   1.286       .  A
C2729      C3208   1.480       .  S
O2730     Zr2731   2.436       .  S
O2730      H2759   0.990       .  S
Zr2731     O2734   2.437       .  S
Zr2731     O2735   2.432       .  S
Zr2731     O2736   2.433       .  S
O2732      C2737   1.279       .  A
O2733      H2750   0.990       .  S
O2733      H2765   0.991       .  S
O2734      H2751   0.990       .  S
O2735      H2755   0.989       .  S
O2735      H2764   0.989       .  S
O2736      C2737   1.283       .  A
C2737      C3231   1.465       .  S
O2738      H2757   0.989       .  S
O2738      H2761   0.991       .  S
O2739      H2753   0.990       .  S
O2739      H2760   0.990       .  S
O2740      C2744   1.277       .  A
O2741      C2744   1.311       .  A
O2742      H2752   0.990       .  S
O2743      H2756   0.990       .  S
C2744      C3371   1.520       .  S
Zr2767     O2768   2.447       .  S
Zr2767     O2769   2.466       .  S
Zr2767     O2770   2.443       .  S
Zr2767     O2773   2.391       .  S
O2768      H2824   0.990       .  S
O2768      H2832   0.991       .  S
O2769      C2789   1.288       .  A
O2770      C2791   1.281       .  A
O2771     Zr2781   2.569       .  S
O2772      C2791   1.279       .  A
O2773      C2790   1.270       .  A
O2774      C2789   1.283       .  A
O2775     Zr2780   2.397   1_455  S
O2775     Zr2782   2.390   1_455  S
O2776     Zr2781   2.388       .  S
O2776     Zr2782   2.386       .  S
O2776      H2811   0.961       .  S
O2777     Zr2780   2.403       .  S
O2777     Zr2797   2.401       .  S
O2778     Zr2781   2.384       .  S
O2778     Zr2797   2.378       .  S
Zr2779     O2785   2.413       .  S
Zr2779     O2786   2.391       .  S
Zr2779     O2787   2.354       .  S
Zr2779     O2788   2.403       .  S
Zr2779     O2804   2.437       .  S
Zr2779     O2798   2.403       .  S
Zr2779     O2806   2.388       .  S
Zr2779     O2794   2.473       .  S
Zr2780     O2786   2.381       .  S
Zr2780     O2787   2.377       .  S
Zr2780     O2799   2.443   1_655  S
Zr2780     O2792   2.436   1_655  S
Zr2780     O2793   2.430       .  S
Zr2781     O2785   2.411       .  S
Zr2781     O2788   2.379       .  S
Zr2781     O2783   2.435       .  S
Zr2781     O2805   2.435       .  S
Zr2781     O2807   2.539       .  S
Zr2782     O2785   2.388       .  S
Zr2782     O2786   2.414       .  S
Zr2782     O2808   2.436       .  S
Zr2782     O2809   2.434       .  S
Zr2782     O2784   2.436   1_655  S
O2783      H2820   0.989       .  S
O2784      H2815   0.991       .  S
O2786      H2812   0.970       .  S
O2787     Zr2797   2.358       .  S
O2788     Zr2797   2.376       .  S
O2788      H2813   0.963       .  S
C2789      C3178   1.487       .  S
C2790      C3188   1.510       .  S
C2791      C3221   1.464       .  S
O2793      C2795   1.282       .  A
O2794      C2795   1.291       .  A
C2795      C3358   1.497       .  S
O2796     Zr2797   2.438       .  S
O2796      H2825   0.990   1_655  S
Zr2797     O2800   2.437       .  S
Zr2797     O2801   2.436       .  S
Zr2797     O2802   2.427       .  S
O2798      C2803   1.277       .  A
O2799      H2816   0.990       .  S
O2799      H2831   0.991       .  S
O2800      H2817   0.990       .  S
O2801      H2821   0.990       .  S
O2801      H2830   0.990       .  S
O2802      C2803   1.284       .  A
C2803      C3228   1.481       .  S
O2804      H2823   0.990       .  S
O2804      H2827   0.990       .  S
O2805      H2819   0.990       .  S
O2805      H2826   0.990       .  S
O2806      C2810   1.278       .  A
O2807      C2810   1.308       .  A
O2808      H2818   0.990       .  S
O2809      H2822   0.990       .  S
C2810      C3198   1.506       .  S
Zr2833     O2834   2.444       .  S
Zr2833     O2835   2.479       .  S
Zr2833     O2836   2.456       .  S
Zr2833     O2839   2.386       .  S
O2834      H2890   0.991       .  S
O2834      H2898   0.990       .  S
O2835      C2855   1.291       .  A
O2836      C2857   1.285       .  A
O2837     Zr2847   2.561       .  S
O2838      C2857   1.278       .  A
O2839      C2856   1.269       .  A
O2840      C2855   1.281       .  A
O2841     Zr2846   2.393       .  S
O2841     Zr2848   2.388   1_455  S
O2842     Zr2847   2.376       .  S
O2842     Zr2848   2.388       .  S
O2842      H2877   0.959       .  S
O2843     Zr2846   2.396       .  S
O2843     Zr2863   2.407   1_455  S
O2844     Zr2847   2.389       .  S
O2844     Zr2863   2.371       .  S
Zr2845     O2851   2.408       .  S
Zr2845     O2852   2.400       .  S
Zr2845     O2853   2.371       .  S
Zr2845     O2854   2.390       .  S
Zr2845     O2870   2.441       .  S
Zr2845     O2864   2.425       .  S
Zr2845     O2872   2.405       .  S
Zr2845     O2860   2.451       .  S
Zr2846     O2852   2.383   1_455  S
Zr2846     O2853   2.392   1_455  S
Zr2846     O2865   2.446       .  S
Zr2846     O2858   2.435       .  S
Zr2846     O2859   2.430   1_455  S
Zr2847     O2851   2.407       .  S
Zr2847     O2854   2.371       .  S
Zr2847     O2849   2.434       .  S
Zr2847     O2871   2.434       .  S
Zr2847     O2873   2.542       .  S
Zr2848     O2851   2.398       .  S
Zr2848     O2852   2.408       .  S
Zr2848     O2874   2.433       .  S
Zr2848     O2875   2.437       .  S
Zr2848     O2850   2.436   1_655  S
O2849      H2886   0.990       .  S
O2850      H2881   0.991       .  S
O2852      H2878   0.969       .  S
O2853     Zr2863   2.367       .  S
O2854     Zr2863   2.375       .  S
O2854      H2879   0.964       .  S
C2855      C3128   1.487       .  S
C2856      C3158   1.513       .  S
C2857      C3138   1.473       .  S
O2859      C2861   1.282       .  A
O2860      C2861   1.289       .  A
C2861      C3298   1.483       .  S
O2862     Zr2863   2.437       .  S
O2862      H2891   0.990   1_655  S
Zr2863     O2866   2.434       .  S
Zr2863     O2867   2.436       .  S
Zr2863     O2868   2.429       .  S
O2864      C2869   1.282       .  A
O2865      H2882   0.991       .  S
O2865      H2897   0.990       .  S
O2866      H2883   0.990       .  S
O2867      H2887   0.990       .  S
O2867      H2896   0.989       .  S
O2868      C2869   1.284       .  A
C2869      C3148   1.458       .  S
O2870      H2889   0.989       .  S
O2870      H2893   0.989       .  S
O2871      H2885   0.990       .  S
O2871      H2892   0.990       .  S
O2872      C2876   1.278       .  A
O2873      C2876   1.308       .  A
O2874      H2884   0.991       .  S
O2875      H2888   0.990       .  S
C2876      C3168   1.526       .  S
Zr2899     O4059   2.376       .  S
Zr2899     O4060   2.398       .  S
Zr2899     O4061   2.413       .  S
Zr2899     O4062   2.401       .  S
Zr2899     O2900   2.445       .  S
Zr2899     O2901   2.458       .  S
Zr2899     O2902   2.436       .  S
Zr2899     O2905   2.383       .  S
O2900      H2956   0.991       .  S
O2900      H2964   0.990       .  S
O2901      C2921   1.285       .  A
O2902      C2923   1.280       .  A
O2903     Zr2913   2.572       .  S
O2903      C4074   1.313       .  A
O2904     Zr4064   2.409       .  S
O2904      C2923   1.277       .  A
O2905      C2922   1.271       .  A
O2906     Zr4066   2.415       .  S
O2906      C2921   1.280       .  A
O2907     Zr4051   2.376       .  S
O2907     Zr2912   2.399   1_565  S
O2907     Zr2914   2.395   1_565  S
O2908     Zr4051   2.395   1_545  S
O2908     Zr2913   2.390       .  S
O2908     Zr2914   2.398       .  S
O2908      H2943   0.961       .  S
O2909     Zr4051   2.422   1_545  S
O2909     Zr2912   2.401       .  S
O2909     Zr2929   2.403       .  S
O2909      H2946   0.963   1_545  S
O2910     Zr4051   2.413   1_545  S
O2910     Zr2913   2.388       .  S
O2910     Zr2929   2.391       .  S
Zr2911     O2917   2.401       .  S
Zr2911     O2918   2.393       .  S
Zr2911     O2919   2.368       .  S
Zr2911     O2920   2.392       .  S
Zr2911     O2936   2.442       .  S
Zr2911     O2930   2.415       .  S
Zr2911     O2938   2.394       .  S
Zr2911     O2926   2.436       .  S
Zr2912     O2918   2.388       .  S
Zr2912     O2919   2.391       .  S
Zr2912     O2931   2.444   1_545  S
Zr2912     O2924   2.434   1_545  S
Zr2912     O4056   2.416   1_545  S
Zr2912     O2925   2.428       .  S
Zr2913     O2917   2.411       .  S
Zr2913     O2920   2.366       .  S
Zr2913     O2915   2.435       .  S
Zr2913     O2937   2.435       .  S
Zr2913     O2939   2.566       .  S
Zr2914     O2917   2.385       .  S
Zr2914     O2918   2.405       .  S
Zr2914     O2940   2.434       .  S
Zr2914     O2941   2.435       .  S
Zr2914     O2916   2.438       .  S
Zr2914     O4058   2.406       .  S
O2915      H2952   0.990       .  S
O2916      H2947   0.991       .  S
O2916      H2961   0.990   1_545  S
O2918      H2944   0.964       .  S
O2919     Zr2929   2.363       .  S
O2920     Zr2929   2.367       .  S
O2920      H2945   0.961       .  S
C2921      C3288   1.474       .  S
C2922      O4055   1.313       .  A
C2922      C3351   1.508       .  S
C2923      C3141   1.465       .  S
O2924      H4112   0.990       .  S
O2925      C2927   1.282       .  A
O2926      C2927   1.285       .  A
C2927      C3121   1.477       .  S
O2928     Zr2929   2.437       .  S
O2928      H2957   0.990       .  S
Zr2929     O2932   2.437       .  S
Zr2929     O2933   2.439       .  S
Zr2929     O2934   2.442       .  S
O2930      C2935   1.280       .  A
O2931      H2948   0.990       .  S
O2931      H2963   0.991       .  S
O2932      H2949   0.990       .  S
O2933      H2953   0.990       .  S
O2933      H2962   0.990       .  S
O2934      C2935   1.284       .  A
C2935      C3151   1.460       .  S
O2936      H2955   0.990       .  S
O2936      H2959   0.990       .  S
O2937      H2951   0.990       .  S
O2937      H2958   0.990       .  S
O2938      C2942   1.277       .  A
O2939      C2942   1.313       .  A
O2940      H2950   0.990       .  S
O2941      H2954   0.990       .  S
C2942      C3341   1.528       .  S
H2960      O4076   0.990       .  S
Zr2965     O2973   2.385       .  S
Zr2965     O2974   2.404       .  S
Zr2965     O2975   2.429       .  S
Zr2965     O2976   2.403       .  S
Zr2965     O4118   2.446       .  S
Zr2965     O4119   2.433       .  S
Zr2965     O4120   2.423       .  S
Zr2965     O4123   2.396       .  S
O2966     Zr4117   2.446       .  S
O2966      H3022   0.989       .  S
O2966      H3030   0.990       .  S
O2967     Zr4117   2.442       .  S
O2967      C2987   1.284       .  A
O2968     Zr4117   2.456       .  S
O2968      C2989   1.284       .  A
O2969     Zr2979   2.570       .  S
O2969      C2988   1.313       .  A
O2970     Zr4130   2.343   1_545  S
O2970      C2989   1.269       .  A
O2971     Zr4117   2.403       .  S
O2971      C4140   1.278   1_545  A
O2972     Zr2980   2.446       .  S
O2972      C4139   1.286       .  A
O2973     Zr2978   2.402       .  S
O2973     Zr2980   2.362       .  S
O2974     Zr2979   2.386       .  S
O2974     Zr2980   2.397       .  S
O2974      H3009   0.965       .  S
O2975     Zr2978   2.399       .  S
O2975     Zr2995   2.392       .  S
O2975      H3012   0.966       .  S
O2976     Zr2979   2.399       .  S
O2976     Zr2995   2.372       .  S
Zr2977     O2983   2.404       .  S
Zr2977     O2984   2.389       .  S
Zr2977     O2985   2.357       .  S
Zr2977     O2986   2.407       .  S
Zr2977     O3002   2.442       .  S
Zr2977     O2996   2.399       .  S
Zr2977     O3004   2.397       .  S
Zr2977     O2992   2.459       .  S
Zr2978     O2984   2.379       .  S
Zr2978     O2985   2.369       .  S
Zr2978     O2997   2.436       .  S
Zr2978     O2990   2.432       .  S
Zr2978     O4122   2.393       .  S
Zr2978     O2991   2.422       .  S
Zr2979     O2983   2.403       .  S
Zr2979     O2986   2.381       .  S
Zr2979     O2981   2.435       .  S
Zr2979     O3003   2.436       .  S
Zr2979     O3005   2.557       .  S
Zr2980     O2983   2.387       .  S
Zr2980     O2984   2.426       .  S
Zr2980     O3006   2.432       .  S
Zr2980     O3007   2.438       .  S
Zr2980     O2982   2.441       .  S
O2981      H3018   0.989       .  S
O2982      H3013   0.990       .  S
O2982      H3027   0.990       .  S
O2984      H3010   0.965       .  S
O2985     Zr2995   2.367       .  S
O2986     Zr2995   2.385       .  S
O2986      H3011   0.965       .  S
C2987      O4124   1.285   1_545  A
C2987      C3211   1.483       .  S
C2988      O4123   1.277       .  A
C2988      C4353   1.525       .  S
C2989      C3098   1.463       .  S
O2990      H3026   0.990       .  S
O2991      C2993   1.282       .  A
O2992      C2993   1.289       .  A
C2993      C3131   1.486       .  S
O2994     Zr2995   2.435       .  S
O2994      H3023   0.990       .  S
Zr2995     O2998   2.433       .  S
Zr2995     O2999   2.433       .  S
Zr2995     O3000   2.403       .  S
O2996      C3001   1.279       .  A
O2997      H3014   0.990       .  S
O2997      H3029   0.990       .  S
O2998      H3015   0.989       .  S
O2999      H3019   0.990       .  S
O2999      H3028   0.988       .  S
O3000      C3001   1.278       .  A
C3001      C3108   1.439       .  S
O3002      H3021   0.990       .  S
O3002      H3025   0.990       .  S
O3003      H3017   0.990       .  S
O3003      H3024   0.990       .  S
O3004      C3008   1.278       .  A
O3005      C3008   1.311       .  A
O3006      H3016   0.990       .  S
O3007      H3020   0.990       .  S
C3008      C3191   1.520       .  S
Zr3031     O3039   2.380       .  S
Zr3031     O3040   2.401       .  S
Zr3031     O3041   2.404       .  S
Zr3031     O3042   2.397       .  S
Zr3031     O3032   2.441       .  S
Zr3031     O3033   2.453       .  S
Zr3031     O3034   2.462       .  S
Zr3031     O3037   2.409       .  S
O3032      H3088   0.989       .  S
O3032      H3096   0.991       .  S
O3033      C3053   1.286       .  A
O3034      C3055   1.285       .  A
O3035     Zr3045   2.557       .  S
O3035      C3054   1.311       .  A
O3036     Zr3044   2.380       .  S
O3036      C3055   1.271       .  A
O3037      C3054   1.280       .  A
O3038     Zr3046   2.437       .  S
O3038      C3053   1.283       .  A
O3039     Zr3044   2.409       .  S
O3039     Zr3046   2.379       .  S
O3040     Zr3045   2.398       .  S
O3040     Zr3046   2.396       .  S
O3040      H3075   0.965       .  S
O3041     Zr3044   2.431       .  S
O3041     Zr3061   2.376       .  S
O3041      H3078   0.966       .  S
O3042     Zr3045   2.389       .  S
O3042     Zr3061   2.375       .  S
Zr3043     O3049   2.399       .  S
Zr3043     O3050   2.393       .  S
Zr3043     O3051   2.362       .  S
Zr3043     O3052   2.391       .  S
Zr3043     O3068   2.436       .  S
Zr3043     O3062   2.410       .  S
Zr3043     O3070   2.364       .  S
Zr3043     O3058   2.440       .  S
Zr3044     O3050   2.381       .  S
Zr3044     O3051   2.373       .  S
Zr3044     O3063   2.444       .  S
Zr3044     O3056   2.436       .  S
Zr3044     O3057   2.455       .  S
Zr3045     O3049   2.391       .  S
Zr3045     O3052   2.378       .  S
Zr3045     O3047   2.435       .  S
Zr3045     O3069   2.437       .  S
Zr3045     O3071   2.561       .  S
Zr3046     O3049   2.392       .  S
Zr3046     O3050   2.422       .  S
Zr3046     O3072   2.430       .  S
Zr3046     O3073   2.439       .  S
Zr3046     O3048   2.441       .  S
O3047      H3084   0.989       .  S
O3048      H3079   0.990       .  S
O3048      H3093   0.990       .  S
O3050      H3076   0.964       .  S
O3051     Zr3061   2.366       .  S
O3052     Zr3061   2.387       .  S
O3052      H3077   0.967       .  S
C3053      C3118   1.487       .  S
C3054      C3171   1.510       .  S
C3055      C3101   1.447       .  S
O3056      H3092   0.990       .  S
O3057      C3059   1.286       .  A
O3058      C3059   1.285       .  A
C3059      C3181   1.495       .  S
O3060     Zr3061   2.434       .  S
O3060      H3089   0.990       .  S
Zr3061     O3064   2.435       .  S
Zr3061     O3065   2.437       .  S
Zr3061     O3066   2.388       .  S
O3062      C3067   1.280       .  A
O3063      H3080   0.990       .  S
O3063      H3095   0.991       .  S
O3064      H3081   0.990       .  S
O3065      H3085   0.990       .  S
O3065      H3094   0.989       .  S
O3066      C3067   1.274       .  A
C3067      C3111   1.437       .  S
O3068      H3087   0.989       .  S
O3068      H3091   0.990       .  S
O3069      H3083   0.990       .  S
O3069      H3090   0.990       .  S
O3070      C3074   1.272       .  A
O3071      C3074   1.311       .  A
O3072      H3082   0.990       .  S
O3073      H3086   0.990       .  S
C3074      C3161   1.516       .  S
C3097      C3098   1.411       .  A
C3097      C3102   1.413       .  A
C3097     Br3104   1.925       .  S
C3098      C3099   1.409       .  A
C3099      C3100   1.385       .  A
C3099     Br3106   1.933       .  S
C3100      C3101   1.398       .  A
C3100     Br3105   1.930       .  S
C3101      C3102   1.412       .  A
C3102     Br3103   1.923       .  S
C3107      C3108   1.408       .  A
C3107      C3112   1.393       .  A
C3107     Br3114   1.932       .  S
C3108      C3109   1.403       .  A
C3109      C3110   1.394       .  A
C3109     Br3116   1.929       .  S
C3110      C3111   1.405       .  A
C3110     Br3115   1.930       .  S
C3111      C3112   1.401       .  A
C3112     Br3113   1.928       .  S
C3117      C3118   1.412       .  A
C3117      C3122   1.411       .  A
C3117     Br3124   1.932       .  S
C3118      C3119   1.417       .  A
C3119      C3120   1.406       .  A
C3119     Br3126   1.929       .  S
C3120      C3121   1.406       .  A
C3120     Br3125   1.934       .  S
C3121      C3122   1.412       .  A
C3122     Br3123   1.928       .  S
C3127      C3128   1.408       .  A
C3127      C3132   1.415       .  A
C3127     Br3134   1.928       .  S
C3128      C3129   1.416       .  A
C3129      C3130   1.407       .  A
C3130      C3131   1.406       .  A
C3130     Br3135   1.931       .  S
C3131      C3132   1.416       .  A
C3132     Br3133   1.928       .  S
C3137      C3138   1.405       .  A
C3137      C3142   1.405       .  A
C3137     Br3144   1.925       .  S
C3138      C3139   1.414       .  A
C3139      C3140   1.402       .  A
C3139     Br3146   1.930       .  S
C3140      C3141   1.402       .  A
C3140     Br3145   1.925       .  S
C3141      C3142   1.410       .  A
C3142     Br3143   1.928       .  S
C3147      C3148   1.413       .  A
C3147      C3152   1.402       .  A
C3147     Br3154   1.927       .  S
C3148      C3149   1.399       .  A
C3149      C3150   1.399       .  A
C3149     Br3156   1.932       .  S
C3150      C3151   1.414       .  A
C3150     Br3155   1.925       .  S
C3151      C3152   1.401       .  A
C3152     Br3153   1.931       .  S
C3157      C3158   1.410       .  A
C3157      C3162   1.422       .  A
C3157     Br3164   1.927       .  S
C3158      C3159   1.424       .  A
C3159      C3160   1.422       .  A
C3159     Br3166   1.930       .  S
C3160      C3161   1.411       .  A
C3160     Br3165   1.928       .  S
C3161      C3162   1.428       .  A
C3162     Br3163   1.934       .  S
C3167      C3168   1.416       .  A
C3167      C3172   1.422       .  A
C3167     Br3174   1.931       .  S
C3168      C3169   1.434       .  A
C3169      C3170   1.423       .  A
C3169     Br3176   1.934       .  S
C3170      C3171   1.406       .  A
C3170     Br3175   1.931       .  S
C3171      C3172   1.419       .  A
C3172     Br3173   1.918       .  S
C3177      C3178   1.408       .  A
C3177      C3182   1.416       .  A
C3177     Br3184   1.928       .  S
C3178      C3179   1.413       .  A
C3179      C3180   1.408       .  A
C3180      C3181   1.413       .  A
C3180     Br3185   1.929       .  S
C3181      C3182   1.418       .  A
C3182     Br3183   1.927       .  S
C3187      C3188   1.409       .  A
C3187      C3192   1.420       .  A
C3187     Br3194   1.927       .  S
C3188      C3189   1.421       .  A
C3189      C3190   1.425       .  A
C3189     Br3196   1.931       .  S
C3190      C3191   1.416       .  A
C3190     Br3195   1.925       .  S
C3191      C3192   1.425       .  A
C3192     Br3193   1.930       .  S
C3197      C3198   1.419       .  A
C3197      C3202   1.424       .  A
C3197     Br3204   1.930       .  S
C3198      C3199   1.406       .  A
C3199      C3200   1.420       .  A
C3199     Br3206   1.933       .  S
C3200      C3201   1.429       .  A
C3200     Br3205   1.929       .  S
C3201      C4140   1.522   1_545  S
C3201      C3202   1.415       .  A
C3202     Br4355   1.926   1_545  S
Br3203     C4354   1.924       .  S
C3207      C3208   1.413       .  A
C3207      C3212   1.409       .  A
C3207     Br3214   1.931       .  S
C3208      C3209   1.408       .  A
C3209      C3210   1.408       .  A
C3209     Br3216   1.929   1_545  S
C3210      C3211   1.416       .  A
C3210     Br3215   1.931   1_545  S
C3211      C3212   1.410       .  A
C3212     Br3213   1.930       .  S
C3217      C3218   1.402       .  A
C3217      C3222   1.404       .  A
C3217     Br3224   1.926       .  S
C3218      C3219   1.411       .  A
C3219      C3220   1.401       .  A
C3219     Br3226   1.927       .  S
C3220      C3221   1.402       .  A
C3220     Br3225   1.927       .  S
C3221      C3222   1.411       .  A
C3222     Br3223   1.925       .  S
C3227      C3228   1.422       .  A
C3227      C3232   1.405       .  A
C3227     Br3234   1.934       .  S
C3228      C3229   1.412       .  A
C3229      C3230   1.398       .  A
C3229     Br3236   1.940       .  S
C3230      C3231   1.410       .  A
C3230     Br3235   1.930       .  S
C3231      C3232   1.406       .  A
C3232     Br3233   1.934       .  S
C3237      C3238   1.403       .  A
C3237      C3242   1.411       .  A
C3237     Br3244   1.927       .  S
C3238      C3239   1.392       .  A
C3239      C3240   1.392       .  A
C3239     Br3246   1.935       .  S
C3240      C3241   1.421       .  A
C3240     Br3245   1.932       .  S
C3241      C3242   1.423       .  A
C3242     Br3243   1.927       .  S
C3247      C3248   1.407       .  A
C3247      C3252   1.402       .  A
C3247     Br3254   1.932       .  S
C3248      C3249   1.406       .  A
C3249      C3250   1.401       .  A
C3249     Br3256   1.937       .  S
C3250      C3251   1.422       .  A
C3250     Br3255   1.937       .  S
C3251      C3252   1.416       .  A
C3252     Br3253   1.936       .  S
C3257      C3258   1.419       .  A
C3257      C3262   1.404       .  A
C3258      C3259   1.411       .  A
C3259      C3260   1.410       .  A
C3259     Br3266   1.929       .  S
C3260      C3261   1.411       .  A
C3260     Br3265   1.930       .  S
C3261      C3262   1.400       .  A
C3267      C3268   1.421       .  A
C3267      C3272   1.425   1_655  A
C3267     Br3274   1.927       .  S
C3268      C3269   1.410       .  A
C3269      C3270   1.417       .  A
C3269     Br3276   1.927       .  S
C3270      C3271   1.415       .  A
C3270     Br3275   1.927       .  S
C3271      C3272   1.413   1_655  A
C3277      C3278   1.433       .  A
C3277      C3282   1.416       .  A
C3277     Br3284   1.934       .  S
C3278      C3279   1.413       .  A
C3279      C3280   1.421       .  A
C3279     Br3286   1.930       .  S
C3280      C3281   1.422       .  A
C3280     Br3285   1.924       .  S
C3281      C3282   1.401       .  A
C3282     Br3283   1.929       .  S
C3287      C3288   1.407       .  A
C3287      C3292   1.409       .  A
C3287     Br3294   1.925       .  S
C3288      C3289   1.411       .  A
C3289      C3290   1.402       .  A
C3289     Br4448   1.931       .  S
C3290      C3291   1.409       .  A
C3290     Br3295   1.931       .  S
C3291      C3292   1.415       .  A
C3292     Br3293   1.933       .  S
Br3296     C4441   1.931   1_545  S
C3297      C3298   1.405       .  A
C3297      C3302   1.403       .  A
C3297     Br3304   1.927       .  S
C3298      C3299   1.414       .  A
C3299      C3300   1.415       .  A
C3299     Br3306   1.928       .  S
C3300      C3301   1.412       .  A
C3300     Br3305   1.927       .  S
C3301      C3302   1.414       .  A
C3302     Br3303   1.930       .  S
C3307      C3308   1.408       .  A
C3307      C3312   1.408       .  A
C3307     Br3314   1.931       .  S
C3308      C3309   1.415       .  A
C3309      C3310   1.408       .  A
C3309     Br3316   1.930       .  S
C3310      C3311   1.414       .  A
C3310     Br3315   1.932       .  S
C3311      C3312   1.417       .  A
C3312     Br3313   1.931       .  S
C3317      C3318   1.401       .  A
C3317      C3322   1.399       .  A
C3317     Br3324   1.932       .  S
C3318      C3319   1.411       .  A
C3319      C3320   1.402       .  A
C3319     Br3326   1.932       .  S
C3320      C3321   1.405       .  A
C3320     Br3325   1.925       .  S
C3321      C3322   1.415       .  A
C3322     Br3323   1.928       .  S
C3327      C3328   1.413       .  A
C3327      C3332   1.405       .  A
C3327     Br3334   1.929       .  S
C3328      C3329   1.404       .  A
C3329      C3330   1.400       .  A
C3329     Br3336   1.933       .  S
C3330      C3331   1.410       .  A
C3330     Br3335   1.930       .  S
C3331      C3332   1.404       .  A
C3332     Br3333   1.933       .  S
C3337      C3338   1.409       .  A
C3337      C3342   1.426       .  A
C3337     Br3344   1.929       .  S
C3338      C3339   1.423       .  A
C3339      C3340   1.425       .  A
C3339     Br3346   1.926       .  S
C3340      C3341   1.414       .  A
C3340     Br3345   1.928       .  S
C3341      C3342   1.432       .  A
C3342     Br3343   1.931       .  S
C3347      C3348   1.412       .  A
C3347      C3352   1.425       .  A
C3347     Br3354   1.928       .  S
C3348      C3349   1.430       .  A
C3349      C3350   1.422       .  A
C3349     Br3356   1.930       .  S
C3350      C3351   1.408       .  A
C3350     Br3355   1.933       .  S
C3351      C3352   1.424       .  A
C3352     Br3353   1.929       .  S
C3357      C3358   1.414       .  A
C3357      C3362   1.410       .  A
C3357     Br3364   1.919       .  S
C3358      C3359   1.416       .  A
C3359      C3360   1.411       .  A
C3359     Br3366   1.935       .  S
C3360      C3361   1.416       .  A
C3360     Br3365   1.933       .  S
C3361      C3362   1.416       .  A
C3362     Br3363   1.937       .  S
C3367      C3368   1.422   1_545  A
C3367      C3372   1.426       .  A
C3367     Br3374   1.922   1_545  S
C3368      C3546   1.513       .  S
C3368      C3369   1.407   1_565  A
C3369      C3370   1.421       .  A
C3369     Br3376   1.927   1_545  S
C3370      C3371   1.427       .  A
C3370     Br3375   1.930       .  S
C3371      C3372   1.413       .  A
C3372     Br3373   1.928       .  S
C3377      C3378   1.410       .  A
C3377      C3382   1.419       .  A
C3377     Br3384   1.930       .  S
C3378      C3379   1.421       .  A
C3379      C3380   1.427       .  A
C3379     Br3386   1.921       .  S
C3380      C3381   1.414       .  A
C3380     Br3385   1.928       .  S
C3381      C3382   1.419       .  A
C3382     Br3383   1.928       .  S
C3387      C3388   1.410       .  A
C3387      C3392   1.408       .  A
C3387     Br3394   1.931       .  S
C3388      C3389   1.403       .  A
C3389      C3390   1.405       .  A
C3389     Br3396   1.930       .  S
C3390      C3391   1.419       .  A
C3390     Br3395   1.930       .  S
C3391      C3392   1.414       .  A
C3392     Br3393   1.931       .  S
C3397      C3398   1.413       .  A
C3397      C3402   1.409       .  A
C3397     Br3404   1.929       .  S
C3398      C3399   1.407       .  A
C3399      C3400   1.405       .  A
C3399     Br3406   1.930   1_655  S
C3400      C3401   1.415       .  A
C3401      C3402   1.407       .  A
C3402     Br3403   1.927       .  S
C3407      C3408   1.411       .  A
C3407      C3412   1.405       .  A
C3407     Br3414   1.933       .  S
C3408      C3409   1.420       .  A
C3409      C3410   1.411       .  A
C3409     Br3416   1.930       .  S
C3410      C3411   1.404       .  A
C3410     Br3415   1.931       .  S
C3411      C3412   1.411       .  A
C3412     Br3413   1.931       .  S
C3417      C3418   1.406       .  A
C3417      C3422   1.404       .  A
C3417     Br3424   1.928       .  S
C3418      C3419   1.414       .  A
C3419      C3420   1.401       .  A
C3419     Br3426   1.932       .  S
C3420      C3421   1.403       .  A
C3420     Br3425   1.925       .  S
C3421      C3422   1.409       .  A
C3422     Br3423   1.928       .  S
C3427      C3428   1.417       .  A
C3427      C3432   1.406       .  A
C3427     Br3434   1.938       .  S
C3428      C3429   1.423       .  A
C3429      C3430   1.408       .  A
C3429     Br3436   1.935       .  S
C3430      C3431   1.407       .  A
C3430     Br3435   1.936       .  S
C3431      C3432   1.410       .  A
C3432     Br3433   1.932       .  S
C3437      C3438   1.412       .  A
C3437      C3442   1.420       .  A
C3437     Br3444   1.929       .  S
C3438      C3439   1.418       .  A
C3439      C3440   1.419       .  A
C3439     Br3446   1.927   1_654  S
C3440      C3441   1.412       .  A
C3440     Br3445   1.930   1_554  S
C3441      C3442   1.420       .  A
C3442     Br3443   1.932       .  S
C3447      C3448   1.425   1_556  A
C3447      C3452   1.416       .  A
C3447     Br3454   1.932       .  S
C3448      C3449   1.411       .  A
C3449      C3450   1.422       .  A
C3449     Br3456   1.926       .  S
C3450      C3451   1.420       .  A
C3450     Br3455   1.928       .  S
C3451      C3452   1.407   1_554  A
C3452     Br3453   1.934       .  S
Zr3457     O3465   2.374       .  S
Zr3457     O3466   2.395   1_556  S
Zr3457     O3467   2.415       .  S
Zr3457     O3468   2.412       .  S
O3458      H3514   0.989   1_556  S
O3458      H3522   0.991       .  S
O3459      C3479   1.291       .  A
O3460      C3481   1.283       .  A
O3461     Zr3471   2.553   1_554  S
O3461      C3480   1.305       .  A
O3462      C3481   1.279       .  A
O3464     Zr3472   2.405   1_554  S
O3465     Zr3470   2.392       .  S
O3465     Zr3472   2.386       .  S
O3466     Zr3471   2.383   1_554  S
O3466     Zr3472   2.390   1_554  S
O3466      H3501   0.963       .  S
O3467     Zr3470   2.406       .  S
O3467     Zr3487   2.406       .  S
O3467      H3504   0.962       .  S
O3468     Zr3471   2.391       .  S
O3468     Zr3487   2.375       .  S
Zr3469     O3475   2.397       .  S
Zr3469     O3476   2.386       .  S
Zr3469     O3477   2.358       .  S
Zr3469     O3478   2.396       .  S
Zr3469     O3494   2.439       .  S
Zr3469     O3488   2.402       .  S
Zr3469     O3496   2.377       .  S
Zr3469     O3484   2.420       .  S
Zr3470     O3476   2.379       .  S
Zr3470     O3477   2.379       .  S
Zr3470     O3489   2.443       .  S
Zr3470     O3482   2.437       .  S
Zr3470     O3483   2.444       .  S
Zr3471     O3475   2.399       .  S
Zr3471     O3478   2.384       .  S
Zr3471     O3473   2.435       .  S
Zr3471     O3495   2.434   1_556  S
Zr3471     O3497   2.548   1_556  S
Zr3472     O3475   2.386       .  S
Zr3472     O3476   2.409       .  S
Zr3472     O3498   2.437   1_556  S
Zr3472     O3499   2.435   1_556  S
Zr3472     O3474   2.440       .  S
O3473      H3510   0.990       .  S
O3474      H3505   0.991   1_556  S
O3474      H3519   0.989       .  S
O3476      H3502   0.971       .  S
O3477     Zr3487   2.361       .  S
O3478     Zr3487   2.377       .  S
O3478      H3503   0.966       .  S
C3479      C4553   1.484       .  S
C3481      C4573   1.467       .  S
O3482      H3518   0.990       .  S
O3483      C3485   1.285       .  A
O3484      C3485   1.282       .  A
C3485      C4560   1.480       .  S
O3486     Zr3487   2.438       .  S
O3486      H3515   0.990       .  S
Zr3487     O3490   2.433       .  S
Zr3487     O3491   2.438       .  S
Zr3487     O3492   2.440       .  S
O3488      C3493   1.276       .  A
O3489      H3506   0.990       .  S
O3489      H3521   0.990       .  S
O3490      H3507   0.989       .  S
O3491      H3511   0.990       .  S
O3491      H3520   0.990       .  S
O3492      C3493   1.286       .  A
C3493      C4580   1.489       .  S
O3494      H3513   0.989       .  S
O3494      H3517   0.990       .  S
O3495      H3509   0.990       .  S
O3495      H3516   0.990       .  S
O3496      C3500   1.275       .  A
O3497      C3500   1.309   1_554  A
O3498      H3508   0.990       .  S
O3499      H3512   0.990   1_554  S
C3500      C4603   1.502   1_556  S
Zr3523     O3524   2.447       .  S
Zr3523     O3525   2.478       .  S
Zr3523     O3526   2.450       .  S
Zr3523     O3529   2.383       .  S
O3524      H3580   0.989       .  S
O3524      H3588   0.991       .  S
O3525      C3545   1.289       .  A
O3526      C3547   1.281       .  A
O3527     Zr3537   2.562       .  S
O3527      C3546   1.311       .  A
O3528      C3547   1.276       .  A
O3530      C3545   1.280       .  A
O3531     Zr3536   2.394       .  S
O3531     Zr3538   2.391       .  S
O3532     Zr3537   2.395       .  S
O3532     Zr3538   2.401       .  S
O3532      H3567   0.965       .  S
O3533     Zr3536   2.407       .  S
O3533     Zr3553   2.403       .  S
O3533      H3570   0.963       .  S
O3534     Zr3537   2.397       .  S
O3534     Zr3553   2.390       .  S
Zr3535     O3541   2.402       .  S
Zr3535     O3542   2.387       .  S
Zr3535     O3543   2.356       .  S
Zr3535     O3544   2.391       .  S
Zr3535     O3560   2.437       .  S
Zr3535     O3554   2.403       .  S
Zr3535     O3562   2.370       .  S
Zr3535     O3550   2.451       .  S
Zr3536     O3542   2.378       .  S
Zr3536     O3543   2.385       .  S
Zr3536     O3555   2.446       .  S
Zr3536     O3548   2.435       .  S
Zr3536     O3549   2.417       .  S
Zr3537     O3541   2.406       .  S
Zr3537     O3544   2.384       .  S
Zr3537     O3539   2.437       .  S
Zr3537     O3561   2.438       .  S
Zr3537     O3563   2.554       .  S
Zr3538     O3541   2.387       .  S
Zr3538     O3542   2.409       .  S
Zr3538     O3564   2.433       .  S
Zr3538     O3565   2.440       .  S
Zr3538     O3540   2.437       .  S
O3539      H3576   0.990       .  S
O3540      H3571   0.990       .  S
O3540      H3585   0.990   1_565  S
O3542      H3568   0.959       .  S
O3543     Zr3553   2.366       .  S
O3544     Zr3553   2.372       .  S
O3544      H3569   0.964       .  S
C3545      C4513   1.513       .  S
C3547      C4570   1.469       .  S
O3548      H3584   0.990       .  S
O3549      C3551   1.280       .  A
O3550      C3551   1.288       .  A
C3551      C4540   1.483       .  S
O3552     Zr3553   2.441       .  S
O3552      H3581   0.990       .  S
Zr3553     O3556   2.434       .  S
Zr3553     O3557   2.438       .  S
Zr3553     O3558   2.436       .  S
O3554      C3559   1.279       .  A
O3555      H3572   0.991   1_565  S
O3555      H3587   0.989       .  S
O3556      H3573   0.990       .  S
O3557      H3577   0.988       .  S
O3557      H3586   0.990       .  S
O3558      C3559   1.285       .  A
C3559      C4583   1.467       .  S
O3560      H3579   0.991       .  S
O3560      H3583   0.988       .  S
O3561      H3575   0.990       .  S
O3561      H3582   0.990       .  S
O3562      C3566   1.273       .  A
O3563      C3566   1.310       .  A
O3564      H3574   0.990       .  S
O3565      H3578   0.989       .  S
C3566      C4533   1.502       .  S
Zr3589     O3597   2.372       .  S
Zr3589     O3598   2.399       .  S
Zr3589     O3599   2.413       .  S
Zr3589     O3600   2.414       .  S
Zr3589     O3590   2.450       .  S
Zr3589     O3591   2.455       .  S
Zr3589     O3592   2.445       .  S
Zr3589     O3595   2.361       .  S
O3590      H3646   0.991       .  S
O3590      H3654   0.990       .  S
O3591      C3611   1.284       .  A
O3592      C3613   1.280       .  A
O3593     Zr3603   2.588       .  S
O3593      C3612   1.316       .  A
O3594     Zr3602   2.402       .  S
O3594      C3613   1.278       .  A
O3595      C3612   1.269       .  A
O3596     Zr3604   2.409       .  S
O3596      C3611   1.279       .  A
O3597     Zr3602   2.393       .  S
O3597     Zr3604   2.390       .  S
O3598     Zr3603   2.395       .  S
O3598     Zr3604   2.395       .  S
O3598      H3633   0.962       .  S
O3599     Zr3602   2.405       .  S
O3599     Zr3619   2.391       .  S
O3599      H3636   0.964       .  S
O3600     Zr3603   2.397       .  S
O3600     Zr3619   2.386       .  S
Zr3601     O3607   2.403       .  S
Zr3601     O3608   2.391       .  S
Zr3601     O3609   2.359       .  S
Zr3601     O3610   2.398       .  S
Zr3601     O3626   2.450       .  S
Zr3601     O3620   2.439       .  S
Zr3601     O3628   2.358       .  S
Zr3601     O3616   2.433       .  S
Zr3602     O3608   2.380       .  S
Zr3602     O3609   2.388       .  S
Zr3602     O3621   2.444       .  S
Zr3602     O3614   2.435       .  S
Zr3602     O3615   2.421       .  S
Zr3603     O3607   2.405       .  S
Zr3603     O3610   2.382       .  S
Zr3603     O3605   2.437       .  S
Zr3603     O3627   2.437       .  S
Zr3603     O3629   2.587       .  S
Zr3604     O3607   2.390       .  S
Zr3604     O3608   2.407       .  S
Zr3604     O3630   2.437       .  S
Zr3604     O3631   2.436       .  S
Zr3604     O3606   2.437       .  S
O3605      H3642   0.989       .  S
O3606      H3637   0.991       .  S
O3606      H3651   0.989       .  S
O3608      H3634   0.971       .  S
O3609     Zr3619   2.371       .  S
O3610     Zr3619   2.378       .  S
O3610      H3635   0.961       .  S
C3611      C4453   1.476       .  S
C3612      C4490   1.514       .  S
C3613      C4473   1.466       .  S
O3614      H3650   0.990       .  S
O3615      C3617   1.281       .  A
O3616      C3617   1.282       .  A
C3617      C4463   1.487       .  S
O3618     Zr3619   2.440       .  S
O3618      H3647   0.990       .  S
Zr3619     O3622   2.435       .  S
Zr3619     O3623   2.438       .  S
Zr3619     O3624   2.411       .  S
O3620      C3625   1.285       .  A
O3621      H3638   0.991       .  S
O3621      H3653   0.990       .  S
O3622      H3639   0.990       .  S
O3623      H3643   0.990       .  S
O3623      H3652   0.989       .  S
O3624      C3625   1.279       .  A
C3625      C4480   1.464       .  S
O3626      H3645   0.990       .  S
O3626      H3649   0.990       .  S
O3627      H3641   0.990       .  S
O3627      H3648   0.990       .  S
O3628      C3632   1.269       .  A
O3629      C3632   1.317       .  A
O3630      H3640   0.990       .  S
O3631      H3644   0.989       .  S
C3632      C4500   1.527       .  S
Zr3655     O3663   2.373       .  S
Zr3655     O3664   2.396       .  S
Zr3655     O3665   2.418       .  S
Zr3655     O3666   2.414       .  S
O3656      H3712   0.990       .  S
O3656      H3720   0.990       .  S
O3657      C3677   1.283       .  A
O3658      C3679   1.278       .  A
O3659     Zr3669   2.557       .  S
O3659      C3678   1.307       .  A
O3660      C3679   1.277       .  A
O3662     Zr3670   2.420       .  S
O3663     Zr3668   2.394       .  S
O3663     Zr3670   2.390       .  S
O3664     Zr3669   2.381       .  S
O3664     Zr3670   2.387       .  S
O3664      H3699   0.962       .  S
O3665     Zr3668   2.404       .  S
O3665     Zr3685   2.398       .  S
O3665      H3702   0.962       .  S
O3666     Zr3669   2.393       .  S
O3666     Zr3685   2.386       .  S
Zr3667     O3673   2.398       .  S
Zr3667     O3674   2.397       .  S
Zr3667     O3675   2.363       .  S
Zr3667     O3676   2.390       .  S
Zr3667     O3692   2.436       .  S
Zr3667     O3686   2.424       .  S
Zr3667     O3694   2.373       .  S
Zr3667     O3682   2.427       .  S
Zr3668     O3674   2.385       .  S
Zr3668     O3675   2.387       .  S
Zr3668     O3687   2.444       .  S
Zr3668     O3680   2.435       .  S
Zr3668     O3681   2.431       .  S
Zr3669     O3673   2.402       .  S
Zr3669     O3676   2.367       .  S
Zr3669     O3671   2.436       .  S
Zr3669     O3693   2.433       .  S
Zr3669     O3695   2.554       .  S
Zr3670     O3673   2.387       .  S
Zr3670     O3674   2.415       .  S
Zr3670     O3696   2.434       .  S
Zr3670     O3697   2.434       .  S
Zr3670     O3672   2.438       .  S
O3671      H3708   0.990       .  S
O3672      H3703   0.991       .  S
O3672      H3717   0.990       .  S
O3674      H3700   0.963       .  S
O3675     Zr3685   2.369       .  S
O3676     Zr3685   2.372       .  S
O3676      H3701   0.963       .  S
C3677      C4410   1.469       .  S
C3679      C4470   1.453       .  S
O3680      H3716   0.990       .  S
O3681      C3683   1.282       .  A
O3682      C3683   1.283       .  A
C3683      C4443   1.478       .  S
O3684     Zr3685   2.437       .  S
O3684      H3713   0.991       .  S
Zr3685     O3688   2.436       .  S
Zr3685     O3689   2.436       .  S
Zr3685     O3690   2.434       .  S
O3686      C3691   1.282       .  A
O3687      H3704   0.990       .  S
O3687      H3719   0.990       .  S
O3688      H3705   0.990       .  S
O3689      H3709   0.990       .  S
O3689      H3718   0.990       .  S
O3690      C3691   1.284       .  A
C3691      C4483   1.463       .  S
O3692      H3711   0.990       .  S
O3692      H3715   0.990       .  S
O3693      H3707   0.990       .  S
O3693      H3714   0.990       .  S
O3694      C3698   1.274       .  A
O3695      C3698   1.311       .  A
O3696      H3706   0.990       .  S
O3697      H3710   0.990       .  S
C3698      C4430   1.521       .  S
Zr3721     O3722   2.443       .  S
Zr3721     O3723   2.445       .  S
Zr3721     O3724   2.437       .  S
Zr3721     O3727   2.370       .  S
O3722      H3778   0.991       .  S
O3722      H3786   0.990       .  S
O3723      C3743   1.284       .  A
O3724      C3745   1.279       .  A
O3725     Zr3735   2.550       .  S
O3726      C3745   1.274       .  A
O3727      C3744   1.272   1_565  A
O3728      C3743   1.282   1_545  A
O3729     Zr3734   2.395       .  S
O3729     Zr3736   2.383       .  S
O3730     Zr3735   2.394       .  S
O3730     Zr3736   2.395       .  S
O3730      H3765   0.969       .  S
O3731     Zr3734   2.409       .  S
O3731     Zr3751   2.401       .  S
O3731      H3768   0.963       .  S
O3732     Zr3735   2.384       .  S
O3732     Zr3751   2.371       .  S
Zr3733     O3739   2.397       .  S
Zr3733     O3740   2.388       .  S
Zr3733     O3741   2.360       .  S
Zr3733     O3742   2.398       .  S
Zr3733     O3758   2.440       .  S
Zr3733     O3752   2.401       .  S
Zr3733     O3760   2.389       .  S
Zr3733     O3748   2.434       .  S
Zr3734     O3740   2.385       .  S
Zr3734     O3741   2.369       .  S
Zr3734     O3753   2.444       .  S
Zr3734     O3746   2.438       .  S
Zr3734     O3747   2.430       .  S
Zr3735     O3739   2.406       .  S
Zr3735     O3742   2.386       .  S
Zr3735     O3737   2.438       .  S
Zr3735     O3759   2.438       .  S
Zr3735     O3761   2.533       .  S
Zr3736     O3739   2.385       .  S
Zr3736     O3740   2.413       .  S
Zr3736     O3762   2.434       .  S
Zr3736     O3763   2.437       .  S
Zr3736     O3738   2.436       .  S
O3737      H3774   0.989       .  S
O3738      H3769   0.990       .  S
O3738      H3783   0.990       .  S
O3740      H3766   0.961       .  S
O3741     Zr3751   2.359       .  S
O3742     Zr3751   2.384       .  S
O3742      H3767   0.962       .  S
C3743      C4460   1.492       .  S
C3744      C4433   1.509   1_545  S
C3745      C4390   1.454       .  S
O3747      C3749   1.282       .  A
O3748      C3749   1.284       .  A
C3749      C4550   1.480       .  S
O3750     Zr3751   2.437       .  S
O3750      H3779   0.990       .  S
Zr3751     O3754   2.432       .  S
Zr3751     O3755   2.438       .  S
Zr3751     O3756   2.416       .  S
O3752      C3757   1.277       .  A
O3753      H3770   0.991       .  S
O3753      H3785   0.990       .  S
O3754      H3771   0.990       .  S
O3755      H3775   0.990       .  S
O3755      H3784   0.990       .  S
O3756      C3757   1.281       .  A
C3757      C4403   1.474       .  S
O3758      H3777   0.989       .  S
O3758      H3781   0.989       .  S
O3759      H3773   0.990       .  S
O3759      H3780   0.990       .  S
O3760      C3764   1.276       .  A
O3761      C3764   1.305       .  A
O3762      H3772   0.990       .  S
O3763      H3776   0.989       .  S
C3764      C4420   1.498       .  S
Zr3787     O3795   2.377       .  S
Zr3787     O3796   2.401       .  S
Zr3787     O3797   2.414       .  S
Zr3787     O3798   2.401       .  S
Zr3787     O3788   2.440       .  S
Zr3787     O3789   2.417       .  S
Zr3787     O3790   2.445       .  S
Zr3787     O3793   2.384       .  S
O3788      H3844   0.989       .  S
O3788      H3852   0.992       .  S
O3789      C3809   1.279   1_554  A
O3790      C3811   1.278       .  A
O3791     Zr3801   2.549       .  S
O3791      C3810   1.308       .  A
O3792     Zr3800   2.400       .  S
O3792      C3811   1.267       .  A
O3793      C3810   1.275       .  A
O3794     Zr3802   2.443       .  S
O3794      C3809   1.285   1_554  A
O3795     Zr3800   2.401       .  S
O3795     Zr3802   2.369       .  S
O3796     Zr3801   2.387       .  S
O3796     Zr3802   2.392       .  S
O3796      H3831   0.963       .  S
O3797     Zr3800   2.404       .  S
O3797     Zr3817   2.396       .  S
O3797      H3834   0.966       .  S
O3798     Zr3801   2.396       .  S
O3798     Zr3817   2.372       .  S
Zr3799     O3805   2.403       .  S
Zr3799     O3806   2.387       .  S
Zr3799     O3807   2.348       .  S
Zr3799     O3808   2.399       .  S
Zr3799     O3824   2.438       .  S
Zr3799     O3818   2.391       .  S
Zr3799     O3826   2.362       .  S
Zr3799     O3814   2.446       .  S
Zr3800     O3806   2.374       .  S
Zr3800     O3807   2.373       .  S
Zr3800     O3819   2.437       .  S
Zr3800     O3812   2.435       .  S
Zr3800     O3813   2.419       .  S
Zr3801     O3805   2.395       .  S
Zr3801     O3808   2.376       .  S
Zr3801     O3803   2.436       .  S
Zr3801     O3825   2.435   1_554  S
Zr3801     O3827   2.545       .  S
Zr3802     O3805   2.392       .  S
Zr3802     O3806   2.421       .  S
Zr3802     O3828   2.433   1_554  S
Zr3802     O3829   2.437       .  S
Zr3802     O3804   2.437       .  S
O3803      H3840   0.990       .  S
O3804      H3835   0.990       .  S
O3804      H3849   0.990       .  S
O3806      H3832   0.967       .  S
O3807     Zr3817   2.370       .  S
O3808     Zr3817   2.391       .  S
O3808      H3833   0.962       .  S
C3809      C4543   1.480       .  S
C3810      C4600   1.504       .  S
C3811      C4393   1.487       .  S
O3812      H3848   0.990       .  S
O3813      C3815   1.280       .  A
O3814      C3815   1.285       .  A
C3815      C4413   1.475       .  S
O3816     Zr3817   2.436       .  S
O3816      H3845   0.990       .  S
Zr3817     O3820   2.434       .  S
Zr3817     O3821   2.434       .  S
Zr3817     O3822   2.420       .  S
O3818      C3823   1.278       .  A
O3819      H3836   0.990       .  S
O3819      H3851   0.990       .  S
O3820      H3837   0.990       .  S
O3821      H3841   0.990       .  S
O3821      H3850   0.990       .  S
O3822      C3823   1.281       .  A
C3823      C4400   1.451       .  S
O3824      H3843   0.990       .  S
O3824      H3847   0.990       .  S
O3825      H3839   0.990       .  S
O3825      H3846   0.990       .  S
O3826      C3830   1.272       .  A
O3827      C3830   1.308       .  A
O3828      H3838   0.990       .  S
O3829      H3842   0.990       .  S
C3830      C4593   1.499       .  S
Zr3853     O3861   2.378       .  S
Zr3853     O3862   2.400       .  S
Zr3853     O3863   2.412       .  S
Zr3853     O3864   2.399       .  S
Zr3853     O3854   2.443       .  S
Zr3853     O3855   2.454       .  S
Zr3853     O3856   2.438       .  S
Zr3853     O3859   2.388       .  S
O3854      H3910   0.989       .  S
O3854      H3918   0.991       .  S
O3855      C3875   1.286       .  A
O3856      C3877   1.280       .  A
O3857     Zr3867   2.564       .  S
O3857      C3876   1.307       .  A
O3858     Zr3866   2.407       .  S
O3858      C3877   1.278       .  A
O3859      C3876   1.270       .  A
O3860     Zr3868   2.405       .  S
O3860      C3875   1.278       .  A
O3861     Zr3866   2.387       .  S
O3861     Zr3868   2.391       .  S
O3862     Zr3867   2.381       .  S
O3862     Zr3868   2.392       .  S
O3862      H3897   0.962       .  S
O3863     Zr3866   2.400       .  S
O3863     Zr3883   2.403       .  S
O3863      H3900   0.962       .  S
O3864     Zr3867   2.387       .  S
O3864     Zr3883   2.375       .  S
Zr3865     O3871   2.401       .  S
Zr3865     O3872   2.396       .  S
Zr3865     O3873   2.368       .  S
Zr3865     O3874   2.397       .  S
Zr3865     O3890   2.435       .  S
Zr3865     O3884   2.416       .  S
Zr3865     O3892   2.386       .  S
Zr3865     O3880   2.447       .  S
Zr3866     O3872   2.389       .  S
Zr3866     O3873   2.390       .  S
Zr3866     O3885   2.446       .  S
Zr3866     O3878   2.432       .  S
Zr3866     O3879   2.404       .  S
Zr3867     O3871   2.404       .  S
Zr3867     O3874   2.381       .  S
Zr3867     O3869   2.434       .  S
Zr3867     O3891   2.437       .  S
Zr3867     O3893   2.549       .  S
Zr3868     O3871   2.387       .  S
Zr3868     O3872   2.408       .  S
Zr3868     O3894   2.436       .  S
Zr3868     O3895   2.439       .  S
Zr3868     O3870   2.442       .  S
O3869      H3906   0.990       .  S
O3870      H3901   0.989       .  S
O3870      H3915   0.991       .  S
O3872      H3898   0.965       .  S
O3873     Zr3883   2.370       .  S
O3874     Zr3883   2.381       .  S
O3874      H3899   0.966       .  S
C3875      C4563   1.469       .  S
C3876      C4530   1.500       .  S
C3877      C4370   1.463       .  S
O3878      H3914   0.990       .  S
O3879      C3881   1.277       .  A
O3880      C3881   1.286       .  A
C3881      C4360   1.475       .  S
O3882     Zr3883   2.438       .  S
O3882      H3911   0.990       .  S
Zr3883     O3886   2.437       .  S
Zr3883     O3887   2.437       .  S
Zr3883     O3888   2.430       .  S
O3884      C3889   1.281       .  A
O3885      H3902   0.990       .  S
O3885      H3917   0.991       .  S
O3886      H3903   0.990       .  S
O3887      H3907   0.989       .  S
O3887      H3916   0.990       .  S
O3888      C3889   1.284       .  A
C3889      C4383   1.468       .  S
O3890      H3909   0.989       .  S
O3890      H3913   0.991       .  S
O3891      H3905   0.990       .  S
O3891      H3912   0.990       .  S
O3892      C3896   1.277       .  A
O3893      C3896   1.309       .  A
O3894      H3904   0.990       .  S
O3895      H3908   0.990       .  S
C3896      C4523   1.514       .  S
Zr3919     O3920   2.441       .  S
Zr3919     O3921   2.484       .  S
Zr3919     O3922   2.450       .  S
Zr3919     O3925   2.395       .  S
O3920      H3976   0.990       .  S
O3920      H3984   0.991       .  S
O3921      C3941   1.292       .  A
O3922      C3943   1.283       .  A
O3923     Zr3933   2.562       .  S
O3924      C3943   1.279       .  A
O3925      C3942   1.269       .  A
O3926      C3941   1.283       .  A
O3927     Zr3932   2.390   1_455  S
O3927     Zr3934   2.392   1_455  S
O3928     Zr3933   2.391       .  S
O3928     Zr3934   2.389       .  S
O3928      H3963   0.961       .  S
O3929     Zr3932   2.401   1_455  S
O3929     Zr3949   2.408   1_455  S
O3930     Zr3933   2.389       .  S
O3930     Zr3949   2.386       .  S
Zr3931     O3937   2.411       .  S
Zr3931     O3938   2.395       .  S
Zr3931     O3939   2.362       .  S
Zr3931     O3940   2.401       .  S
Zr3931     O3956   2.436       .  S
Zr3931     O3950   2.415       .  S
Zr3931     O3958   2.407       .  S
Zr3931     O3946   2.467       .  S
Zr3932     O3938   2.382       .  S
Zr3932     O3939   2.389       .  S
Zr3932     O3951   2.444   1_655  S
Zr3932     O3944   2.437   1_655  S
Zr3932     O3945   2.417       .  S
Zr3933     O3937   2.410       .  S
Zr3933     O3940   2.379       .  S
Zr3933     O3935   2.434       .  S
Zr3933     O3957   2.436       .  S
Zr3933     O3959   2.542       .  S
Zr3934     O3937   2.392       .  S
Zr3934     O3938   2.406       .  S
Zr3934     O3960   2.433       .  S
Zr3934     O3961   2.438       .  S
Zr3934     O3936   2.437   1_655  S
O3935      H3972   0.990       .  S
O3936      H3967   0.991       .  S
O3938      H3964   0.969       .  S
O3939     Zr3949   2.360       .  S
O3940     Zr3949   2.373       .  S
O3940      H3965   0.963       .  S
C3941      C4330   1.495       .  S
C3942      C4340   1.509       .  S
C3943      C4373   1.467       .  S
O3945      C3947   1.280       .  A
O3946      C3947   1.291       .  A
C3947      C4510   1.493       .  S
O3948     Zr3949   2.437       .  S
O3948      H3977   0.990   1_655  S
Zr3949     O3952   2.436       .  S
Zr3949     O3953   2.436       .  S
Zr3949     O3954   2.447       .  S
O3950      C3955   1.279       .  A
O3951      H3968   0.990       .  S
O3951      H3983   0.991       .  S
O3952      H3969   0.990       .  S
O3953      H3973   0.990       .  S
O3953      H3982   0.990       .  S
O3954      C3955   1.287       .  A
C3955      C4380   1.490       .  S
O3956      H3975   0.990       .  S
O3956      H3979   0.990       .  S
O3957      H3971   0.990       .  S
O3957      H3978   0.990       .  S
O3958      C3962   1.282       .  A
O3959      C3962   1.308       .  A
O3960      H3970   0.990       .  S
O3961      H3974   0.990       .  S
C3962      C4350   1.515       .  S
Zr3985     O3986   2.445       .  S
Zr3985     O3987   2.469       .  S
Zr3985     O3988   2.446       .  S
Zr3985     O3991   2.393       .  S
O3986      H4042   0.991       .  S
O3986      H4050   0.990       .  S
O3987      C4007   1.289       .  A
O3988      C4009   1.282       .  A
O3989     Zr3999   2.571       .  S
O3990      C4009   1.280       .  A
O3991      C4008   1.271       .  A
O3992      C4007   1.285       .  A
O3993     Zr3998   2.387   1_455  S
O3993     Zr4000   2.384   1_455  S
O3994     Zr3999   2.378       .  S
O3994     Zr4000   2.392       .  S
O3994      H4029   0.959       .  S
O3995     Zr3998   2.395   1_455  S
O3995     Zr4015   2.409   1_455  S
O3996     Zr3999   2.382       .  S
O3996     Zr4015   2.381       .  S
Zr3997     O4003   2.401       .  S
Zr3997     O4004   2.393       .  S
Zr3997     O4005   2.363       .  S
Zr3997     O4006   2.396       .  S
Zr3997     O4022   2.438       .  S
Zr3997     O4016   2.414       .  S
Zr3997     O4024   2.387       .  S
Zr3997     O4012   2.452       .  S
Zr3998     O4004   2.378       .  S
Zr3998     O4005   2.382       .  S
Zr3998     O4017   2.443   1_655  S
Zr3998     O4010   2.431   1_655  S
Zr3998     O4011   2.415       .  S
Zr3999     O4003   2.411       .  S
Zr3999     O4006   2.371       .  S
Zr3999     O4001   2.433       .  S
Zr3999     O4023   2.434       .  S
Zr3999     O4025   2.550       .  S
Zr4000     O4003   2.397       .  S
Zr4000     O4004   2.406       .  S
Zr4000     O4026   2.432       .  S
Zr4000     O4027   2.439       .  S
Zr4000     O4002   2.443   1_655  S
O4001      H4038   0.990       .  S
O4002      H4033   0.991       .  S
O4004      H4030   0.971       .  S
O4005     Zr4015   2.358       .  S
O4006     Zr4015   2.375       .  S
O4006      H4031   0.966       .  S
C4007      C4280   1.488       .  S
C4008      C4310   1.501       .  S
C4009      C4290   1.470       .  S
O4011      C4013   1.279       .  A
O4012      C4013   1.289       .  A
C4013      C4450   1.480       .  S
O4014     Zr4015   2.438       .  S
O4014      H4043   0.990   1_655  S
Zr4015     O4018   2.434       .  S
Zr4015     O4019   2.438       .  S
Zr4015     O4020   2.439       .  S
O4016      C4021   1.280       .  A
O4017      H4034   0.991       .  S
O4017      H4049   0.989       .  S
O4018      H4035   0.989       .  S
O4019      H4039   0.990       .  S
O4019      H4048   0.990       .  S
O4020      C4021   1.286       .  A
C4021      C4300   1.462       .  S
O4022      H4041   0.989       .  S
O4022      H4045   0.989       .  S
O4023      H4037   0.990       .  S
O4023      H4044   0.990       .  S
O4024      C4028   1.273       .  A
O4025      C4028   1.310       .  A
O4026      H4036   0.990       .  S
O4027      H4040   0.989       .  S
C4028      C4320   1.533       .  S
Zr4051     O4052   2.449       .  S
Zr4051     O4053   2.468       .  S
Zr4051     O4054   2.447       .  S
Zr4051     O4057   2.379       .  S
O4052      H4108   0.990       .  S
O4052      H4116   0.991       .  S
O4053      C4073   1.287       .  A
O4054      C4075   1.281       .  A
O4055     Zr4065   2.578       .  S
O4056      C4075   1.280       .  A
O4057      C4074   1.272   1_565  A
O4058      C4073   1.278   1_545  A
O4059     Zr4064   2.390       .  S
O4059     Zr4066   2.393       .  S
O4060     Zr4065   2.386       .  S
O4060     Zr4066   2.390       .  S
O4060      H4095   0.960       .  S
O4061     Zr4064   2.396       .  S
O4061     Zr4081   2.410       .  S
O4061      H4098   0.965       .  S
O4062     Zr4065   2.383       .  S
O4062     Zr4081   2.376       .  S
Zr4063     O4069   2.409       .  S
Zr4063     O4070   2.396       .  S
Zr4063     O4071   2.364       .  S
Zr4063     O4072   2.388       .  S
Zr4063     O4088   2.438       .  S
Zr4063     O4082   2.426       .  S
Zr4063     O4090   2.397       .  S
Zr4063     O4078   2.441       .  S
Zr4064     O4070   2.389       .  S
Zr4064     O4071   2.389       .  S
Zr4064     O4083   2.447       .  S
Zr4064     O4076   2.434       .  S
Zr4064     O4077   2.414       .  S
Zr4065     O4069   2.410       .  S
Zr4065     O4072   2.375       .  S
Zr4065     O4067   2.433       .  S
Zr4065     O4089   2.436       .  S
Zr4065     O4091   2.562       .  S
Zr4066     O4069   2.392       .  S
Zr4066     O4070   2.407       .  S
Zr4066     O4092   2.437       .  S
Zr4066     O4093   2.436       .  S
Zr4066     O4068   2.438       .  S
O4067      H4104   0.990       .  S
O4068      H4099   0.991       .  S
O4068      H4113   0.990       .  S
O4070      H4096   0.964       .  S
O4071     Zr4081   2.363       .  S
O4072     Zr4081   2.374       .  S
O4072      H4097   0.957       .  S
C4073      C4440   1.477       .  S
C4074      C4503   1.508   1_545  S
C4075      C4293   1.470       .  S
O4077      C4079   1.280       .  A
O4078      C4079   1.287       .  A
C4079      C4273   1.476       .  S
O4080     Zr4081   2.439       .  S
O4080      H4109   0.990       .  S
Zr4081     O4084   2.440       .  S
Zr4081     O4085   2.438       .  S
Zr4081     O4086   2.432       .  S
O4082      C4087   1.282       .  A
O4083      H4100   0.990       .  S
O4083      H4115   0.990       .  S
O4084      H4101   0.990       .  S
O4085      H4105   0.990       .  S
O4085      H4114   0.990       .  S
O4086      C4087   1.284       .  A
C4087      C4303   1.462       .  S
O4088      H4107   0.990       .  S
O4088      H4111   0.990       .  S
O4089      H4103   0.990       .  S
O4089      H4110   0.990       .  S
O4090      C4094   1.278       .  A
O4091      C4094   1.313       .  A
O4092      H4102   0.990       .  S
O4093      H4106   0.990       .  S
C4094      C4493   1.528       .  S
Zr4117     O4125   2.376   1_545  S
Zr4117     O4126   2.399   1_545  S
Zr4117     O4127   2.406   1_545  S
Zr4117     O4128   2.407   1_545  S
O4118      H4174   0.989       .  S
O4118      H4182   0.990       .  S
O4119      C4139   1.283       .  A
O4120      C4141   1.269       .  A
O4121     Zr4131   2.563       .  S
O4121      C4140   1.311       .  A
O4122      C4141   1.265       .  A
O4124     Zr4132   2.443       .  S
O4125     Zr4130   2.398       .  S
O4125     Zr4132   2.376       .  S
O4126     Zr4131   2.387       .  S
O4126     Zr4132   2.391       .  S
O4126      H4161   0.966       .  S
O4127     Zr4130   2.402       .  S
O4127     Zr4147   2.386       .  S
O4127      H4164   0.964   1_565  S
O4128     Zr4131   2.401       .  S
O4128     Zr4147   2.373       .  S
Zr4129     O4135   2.406       .  S
Zr4129     O4136   2.392       .  S
Zr4129     O4137   2.363       .  S
Zr4129     O4138   2.401       .  S
Zr4129     O4154   2.441       .  S
Zr4129     O4148   2.396       .  S
Zr4129     O4156   2.390       .  S
Zr4129     O4144   2.463       .  S
Zr4130     O4136   2.367       .  S
Zr4130     O4137   2.370       .  S
Zr4130     O4149   2.443       .  S
Zr4130     O4142   2.436       .  S
Zr4130     O4143   2.420       .  S
Zr4131     O4135   2.396       .  S
Zr4131     O4138   2.379       .  S
Zr4131     O4133   2.437       .  S
Zr4131     O4155   2.436       .  S
Zr4131     O4157   2.561       .  S
Zr4132     O4135   2.389       .  S
Zr4132     O4136   2.420       .  S
Zr4132     O4158   2.433       .  S
Zr4132     O4159   2.436       .  S
Zr4132     O4134   2.436       .  S
O4133      H4170   0.990       .  S
O4134      H4165   0.990       .  S
O4134      H4179   0.990       .  S
O4136      H4162   0.960       .  S
O4137     Zr4147   2.374       .  S
O4138     Zr4147   2.380       .  S
O4138      H4163   0.968       .  S
C4139      C4363   1.480       .  S
C4141      C4250   1.483       .  S
O4142      H4178   0.989       .  S
O4143      C4145   1.278       .  A
O4144      C4145   1.289       .  A
C4145      C4283   1.491       .  S
O4146     Zr4147   2.433       .  S
O4146      H4175   0.990   1_565  S
Zr4147     O4150   2.434       .  S
Zr4147     O4151   2.437       .  S
Zr4147     O4152   2.406       .  S
O4148      C4153   1.278       .  A
O4149      H4166   0.990       .  S
O4149      H4181   0.990       .  S
O4150      H4167   0.990       .  S
O4151      H4171   0.990       .  S
O4151      H4180   0.990       .  S
O4152      C4153   1.278       .  A
C4153      C4260   1.438       .  S
O4154      H4173   0.990       .  S
O4154      H4177   0.990       .  S
O4155      H4169   0.990       .  S
O4155      H4176   0.990       .  S
O4156      C4160   1.277       .  A
O4157      C4160   1.311       .  A
O4158      H4168   0.990       .  S
O4159      H4172   0.990       .  S
C4160      C4343   1.520       .  S
Zr4183     O4191   2.380       .  S
Zr4183     O4192   2.398       .  S
Zr4183     O4193   2.409       .  S
Zr4183     O4194   2.395       .  S
Zr4183     O4184   2.442       .  S
Zr4183     O4185   2.432       .  S
Zr4183     O4186   2.443       .  S
Zr4183     O4189   2.398       .  S
O4184      H4240   0.991       .  S
O4184      H4248   0.990       .  S
O4185      C4205   1.282       .  A
O4186      C4207   1.280       .  A
O4187     Zr4197   2.557       .  S
O4187      C4206   1.311       .  A
O4188     Zr4196   2.380       .  S
O4188      C4207   1.272       .  A
O4189      C4206   1.278       .  A
O4190     Zr4198   2.439       .  S
O4190      C4205   1.285       .  A
O4191     Zr4196   2.404       .  S
O4191     Zr4198   2.382       .  S
O4192     Zr4197   2.391       .  S
O4192     Zr4198   2.394       .  S
O4192      H4227   0.967       .  S
O4193     Zr4196   2.421       .  S
O4193     Zr4213   2.394       .  S
O4193      H4230   0.963       .  S
O4194     Zr4197   2.382       .  S
O4194     Zr4213   2.373       .  S
Zr4195     O4201   2.396       .  S
Zr4195     O4202   2.398       .  S
Zr4195     O4203   2.361       .  S
Zr4195     O4204   2.393       .  S
Zr4195     O4220   2.438       .  S
Zr4195     O4214   2.408       .  S
Zr4195     O4222   2.372       .  S
Zr4195     O4210   2.446       .  S
Zr4196     O4202   2.387       .  S
Zr4196     O4203   2.377       .  S
Zr4196     O4215   2.444       .  S
Zr4196     O4208   2.436       .  S
Zr4196     O4209   2.437       .  S
Zr4197     O4201   2.391       .  S
Zr4197     O4204   2.379       .  S
Zr4197     O4199   2.434       .  S
Zr4197     O4221   2.436       .  S
Zr4197     O4223   2.551       .  S
Zr4198     O4201   2.383       .  S
Zr4198     O4202   2.421       .  S
Zr4198     O4224   2.428       .  S
Zr4198     O4225   2.438       .  S
Zr4198     O4200   2.438       .  S
O4199      H4236   0.990       .  S
O4200      H4231   0.990       .  S
O4200      H4245   0.990       .  S
O4202      H4228   0.963       .  S
O4203     Zr4213   2.364       .  S
O4204     Zr4213   2.385       .  S
O4204      H4229   0.968       .  S
C4205      C4270   1.480       .  S
C4206      C4323   1.511       .  S
C4207      C4253   1.448       .  S
O4208      H4244   0.990       .  S
O4209      C4211   1.282       .  A
O4210      C4211   1.285       .  A
C4211      C4333   1.490       .  S
O4212     Zr4213   2.430       .  S
O4212      H4241   0.990       .  S
Zr4213     O4216   2.436       .  S
Zr4213     O4217   2.441       .  S
Zr4213     O4218   2.397       .  S
O4214      C4219   1.280       .  A
O4215      H4232   0.990       .  S
O4215      H4247   0.991       .  S
O4216      H4233   0.990       .  S
O4217      H4237   0.990       .  S
O4217      H4246   0.990       .  S
O4218      C4219   1.276       .  A
C4219      C4263   1.441       .  S
O4220      H4239   0.989       .  S
O4220      H4243   0.990       .  S
O4221      H4235   0.990       .  S
O4221      H4242   0.990       .  S
O4222      C4226   1.274       .  A
O4223      C4226   1.309       .  A
O4224      H4234   0.989       .  S
O4225      H4238   0.991       .  S
C4226      C4313   1.509       .  S
C4249      C4250   1.427       .  A
C4249      C4254   1.409       .  A
C4249     Br4256   1.933       .  S
C4250      C4251   1.421       .  A
C4251      C4252   1.393       .  A
C4251     Br4258   1.937       .  S
C4252      C4253   1.395       .  A
C4252     Br4257   1.931       .  S
C4253      C4254   1.401       .  A
C4254     Br4255   1.926       .  S
C4259      C4260   1.405       .  A
C4259      C4264   1.394       .  A
C4259     Br4266   1.929       .  S
C4260      C4261   1.400       .  A
C4261      C4262   1.393       .  A
C4261     Br4268   1.927       .  S
C4262      C4263   1.405       .  A
C4262     Br4267   1.928       .  S
C4263      C4264   1.401       .  A
C4264     Br4265   1.925       .  S
C4269      C4270   1.411       .  A
C4269      C4274   1.408       .  A
C4269     Br4276   1.933       .  S
C4270      C4271   1.415       .  A
C4271      C4272   1.406       .  A
C4271     Br4278   1.930       .  S
C4272      C4273   1.406       .  A
C4272     Br4277   1.930       .  S
C4273      C4274   1.413       .  A
C4274     Br4275   1.930       .  S
C4279      C4280   1.408       .  A
C4279      C4284   1.415       .  A
C4279     Br4286   1.929       .  S
C4280      C4281   1.414       .  A
C4281      C4282   1.410       .  A
C4282      C4283   1.409       .  A
C4282     Br4287   1.929       .  S
C4283      C4284   1.419       .  A
C4284     Br4285   1.930       .  S
C4289      C4290   1.405       .  A
C4289      C4294   1.405       .  A
C4289     Br4296   1.925       .  S
C4290      C4291   1.411       .  A
C4291      C4292   1.403       .  A
C4291     Br4298   1.928       .  S
C4292      C4293   1.404       .  A
C4292     Br4297   1.925       .  S
C4293      C4294   1.411       .  A
C4294     Br4295   1.928       .  S
C4299      C4300   1.413       .  A
C4299      C4304   1.405       .  A
C4299     Br4306   1.927       .  S
C4300      C4301   1.401       .  A
C4301      C4302   1.399       .  A
C4301     Br4308   1.931       .  S
C4302      C4303   1.412       .  A
C4302     Br4307   1.927       .  S
C4303      C4304   1.403       .  A
C4304     Br4305   1.929       .  S
C4309      C4310   1.409       .  A
C4309      C4314   1.418       .  A
C4309     Br4316   1.928       .  S
C4310      C4311   1.418       .  A
C4311      C4312   1.419       .  A
C4311     Br4318   1.930       .  S
C4312      C4313   1.413       .  A
C4312     Br4317   1.924       .  S
C4313      C4314   1.425       .  A
C4314     Br4315   1.930       .  S
C4319      C4320   1.417       .  A
C4319      C4324   1.421       .  A
C4319     Br4326   1.932       .  S
C4320      C4321   1.443       .  A
C4321      C4322   1.423       .  A
C4321     Br4328   1.939       .  S
C4322      C4323   1.403       .  A
C4322     Br4327   1.935       .  S
C4323      C4324   1.422       .  A
C4324     Br4325   1.925       .  S
C4329      C4330   1.411       .  A
C4329      C4334   1.417       .  A
C4329     Br4336   1.927       .  S
C4330      C4331   1.417       .  A
C4331      C4332   1.409       .  A
C4332      C4333   1.409       .  A
C4332     Br4337   1.931       .  S
C4333      C4334   1.415       .  A
C4334     Br4335   1.929       .  S
C4339      C4340   1.410       .  A
C4339      C4344   1.420       .  A
C4339     Br4346   1.928       .  S
C4340      C4341   1.421       .  A
C4341      C4342   1.426       .  A
C4341     Br4348   1.931       .  S
C4342      C4343   1.416       .  A
C4342     Br4347   1.925       .  S
C4343      C4344   1.424       .  A
C4344     Br4345   1.928       .  S
C4349      C4350   1.421       .  A
C4349      C4354   1.426       .  A
C4349     Br4356   1.929       .  S
C4350      C4351   1.410       .  A
C4351      C4352   1.423       .  A
C4351     Br4358   1.931       .  S
C4352      C4353   1.429       .  A
C4352     Br4357   1.934       .  S
C4353      C4354   1.415       .  A
C4359      C4360   1.413       .  A
C4359      C4364   1.405       .  A
C4359     Br4366   1.934       .  S
C4360      C4361   1.408       .  A
C4361      C4362   1.409       .  A
C4361     Br4368   1.931       .  S
C4362      C4363   1.416       .  A
C4362     Br4367   1.931       .  S
C4363      C4364   1.409       .  A
C4364     Br4365   1.931       .  S
C4369      C4370   1.401       .  A
C4369      C4374   1.402       .  A
C4369     Br4376   1.927       .  S
C4370      C4371   1.410       .  A
C4371      C4372   1.402       .  A
C4371     Br4378   1.928       .  S
C4372      C4373   1.404       .  A
C4372     Br4377   1.928       .  S
C4373      C4374   1.414       .  A
C4374     Br4375   1.931       .  S
C4379      C4380   1.424       .  A
C4379      C4384   1.408       .  A
C4379     Br4386   1.932       .  S
C4380      C4381   1.414       .  A
C4381      C4382   1.401       .  A
C4381     Br4388   1.937       .  S
C4382      C4383   1.410       .  A
C4382     Br4387   1.931       .  S
C4383      C4384   1.404       .  A
C4384     Br4385   1.935       .  S
C4389      C4390   1.404       .  A
C4389      C4394   1.411       .  A
C4389     Br4396   1.924       .  S
C4390      C4391   1.393       .  A
C4391      C4392   1.393       .  A
C4391     Br4398   1.931       .  S
C4392      C4393   1.418       .  A
C4392     Br4397   1.932       .  S
C4393      C4394   1.419       .  A
C4394     Br4395   1.927       .  S
C4399      C4400   1.406       .  A
C4399      C4404   1.400       .  A
C4399     Br4406   1.933       .  S
C4400      C4401   1.402       .  A
C4401      C4402   1.398       .  A
C4401     Br4408   1.938       .  S
C4402      C4403   1.421       .  A
C4402     Br4407   1.934       .  S
C4403      C4404   1.416       .  A
C4404     Br4405   1.938       .  S
C4409      C4410   1.414       .  A
C4409      C4414   1.404       .  A
C4410      C4411   1.404       .  A
C4411      C4412   1.406       .  A
C4411     Br4418   1.929       .  S
C4412      C4413   1.414       .  A
C4412     Br4417   1.927       .  S
C4413      C4414   1.405       .  A
C4419      C4420   1.419       .  A
C4419      C4424   1.423   1_655  A
C4419     Br4426   1.926       .  S
C4420      C4421   1.408       .  A
C4421      C4422   1.414       .  A
C4421     Br4428   1.927       .  S
C4422      C4423   1.413       .  A
C4422     Br4427   1.928       .  S
C4423      C4424   1.412   1_655  A
C4429      C4430   1.433       .  A
C4429      C4434   1.423       .  A
C4429     Br4436   1.934       .  S
C4430      C4431   1.412       .  A
C4431      C4432   1.422       .  A
C4431     Br4438   1.929       .  S
C4432      C4433   1.423       .  A
C4432     Br4437   1.928       .  S
C4433      C4434   1.406       .  A
C4434     Br4435   1.929   1_565  S
C4439      C4440   1.407       .  A
C4439      C4444   1.410       .  A
C4439     Br4446   1.928       .  S
C4440      C4441   1.413       .  A
C4441      C4442   1.404       .  A
C4442      C4443   1.408       .  A
C4442     Br4447   1.931       .  S
C4443      C4444   1.415       .  A
C4444     Br4445   1.929       .  S
C4449      C4450   1.406       .  A
C4449      C4454   1.400       .  A
C4449     Br4456   1.928       .  S
C4450      C4451   1.418       .  A
C4451      C4452   1.412       .  A
C4451     Br4458   1.930       .  S
C4452      C4453   1.408       .  A
C4452     Br4457   1.930       .  S
C4453      C4454   1.412       .  A
C4454     Br4455   1.933       .  S
C4459      C4460   1.415       .  A
C4459      C4464   1.409       .  A
C4459     Br4466   1.935       .  S
C4460      C4461   1.421       .  A
C4461      C4462   1.408       .  A
C4461     Br4468   1.936       .  S
C4462      C4463   1.412       .  A
C4462     Br4467   1.935       .  S
C4463      C4464   1.415       .  A
C4464     Br4465   1.935       .  S
C4469      C4470   1.401       .  A
C4469      C4474   1.399       .  A
C4469     Br4476   1.928       .  S
C4470      C4471   1.410       .  A
C4471      C4472   1.400       .  A
C4471     Br4478   1.927       .  S
C4472      C4473   1.401       .  A
C4472     Br4477   1.924       .  S
C4473      C4474   1.411       .  A
C4474     Br4475   1.925       .  S
C4479      C4480   1.412       .  A
C4479      C4484   1.405       .  A
C4479     Br4486   1.930       .  S
C4480      C4481   1.406       .  A
C4481      C4482   1.401       .  A
C4481     Br4488   1.933       .  S
C4482      C4483   1.411       .  A
C4482     Br4487   1.928       .  S
C4483      C4484   1.404       .  A
C4484     Br4485   1.929       .  S
C4489      C4490   1.410       .  A
C4489      C4494   1.426       .  A
C4489     Br4496   1.930       .  S
C4490      C4491   1.425       .  A
C4491      C4492   1.427       .  A
C4491     Br4498   1.929       .  S
C4492      C4493   1.414       .  A
C4492     Br4497   1.929       .  S
C4493      C4494   1.430       .  A
C4494     Br4495   1.929       .  S
C4499      C4500   1.414       .  A
C4499      C4504   1.427       .  A
C4499     Br4506   1.928       .  S
C4500      C4501   1.437       .  A
C4501      C4502   1.421       .  A
C4501     Br4508   1.934       .  S
C4502      C4503   1.404       .  A
C4502     Br4507   1.933   1_565  S
C4503      C4504   1.421       .  A
C4504     Br4505   1.923   1_565  S
C4509      C4510   1.409       .  A
C4509      C4514   1.411       .  A
C4509     Br4516   1.922       .  S
C4510      C4511   1.412       .  A
C4511      C4512   1.414       .  A
C4511     Br4518   1.936       .  S
C4512      C4513   1.426       .  A
C4512     Br4517   1.936       .  S
C4513      C4514   1.423       .  A
C4514     Br4515   1.935       .  S
C4519      C4520   1.423       .  A
C4519      C4524   1.426       .  A
C4519     Br4526   1.923       .  S
C4520      C4521   1.410       .  A
C4521      C4522   1.421       .  A
C4521     Br4528   1.929       .  S
C4522      C4523   1.422       .  A
C4522     Br4527   1.929       .  S
C4523      C4524   1.412       .  A
C4524     Br4525   1.929       .  S
C4529      C4530   1.413       .  A
C4529      C4534   1.419       .  A
C4529     Br4536   1.928       .  S
C4530      C4531   1.417       .  A
C4531      C4532   1.423       .  A
C4531     Br4538   1.926       .  S
C4532      C4533   1.414       .  A
C4532     Br4537   1.927       .  S
C4533      C4534   1.416       .  A
C4534     Br4535   1.927       .  S
C4539      C4540   1.416       .  A
C4539      C4544   1.409       .  A
C4539     Br4546   1.930       .  S
C4540      C4541   1.408       .  A
C4541      C4542   1.407       .  A
C4541     Br4548   1.928       .  S
C4542      C4543   1.415       .  A
C4542     Br4547   1.931       .  S
C4543      C4544   1.410       .  A
C4544     Br4545   1.933   1_556  S
C4549      C4550   1.413       .  A
C4549      C4554   1.410       .  A
C4549     Br4556   1.928       .  S
C4550      C4551   1.407       .  A
C4551      C4552   1.407       .  A
C4551     Br4558   1.930   1_655  S
C4552      C4553   1.417       .  A
C4553      C4554   1.408       .  A
C4554     Br4555   1.927       .  S
C4559      C4560   1.411       .  A
C4559      C4564   1.403       .  A
C4559     Br4566   1.934       .  S
C4560      C4561   1.419       .  A
C4561      C4562   1.408       .  A
C4561     Br4568   1.930       .  S
C4562      C4563   1.403       .  A
C4562     Br4567   1.931       .  S
C4563      C4564   1.411       .  A
C4564     Br4565   1.930       .  S
C4569      C4570   1.406       .  A
C4569      C4574   1.404       .  A
C4569     Br4576   1.928       .  S
C4570      C4571   1.413       .  A
C4571      C4572   1.401       .  A
C4571     Br4578   1.931       .  S
C4572      C4573   1.403       .  A
C4572     Br4577   1.927       .  S
C4573      C4574   1.412       .  A
C4574     Br4575   1.929       .  S
C4579      C4580   1.413       .  A
C4579      C4584   1.402       .  A
C4579     Br4586   1.932       .  S
C4580      C4581   1.424       .  A
C4581      C4582   1.406       .  A
C4581     Br4588   1.935       .  S
C4582      C4583   1.406       .  A
C4582     Br4587   1.937       .  S
C4583      C4584   1.408       .  A
C4584     Br4585   1.932       .  S
C4589      C4590   1.409   1_655  A
C4589      C4594   1.417       .  A
C4589     Br4596   1.930       .  S
C4590      C4591   1.415   1_455  A
C4591      C4592   1.417       .  A
C4591     Br4598   1.929   1_654  S
C4592      C4593   1.413       .  A
C4592     Br4597   1.927   1_554  S
C4593      C4594   1.421       .  A
C4594     Br4595   1.932       .  S
C4599      C4600   1.420   1_556  A
C4599      C4604   1.417       .  A
C4599     Br4606   1.930       .  S
C4600      C4601   1.410       .  A
C4601      C4602   1.424       .  A
C4601     Br4608   1.926       .  S
C4602      C4603   1.422       .  A
C4602     Br4607   1.926       .  S
C4603      C4604   1.408   1_554  A
C4604     Br4605   1.929       .  S
