geometry optimzed in LAMMPS
_audit_creation_date              2020-11-30 
_audit_creation_method            'lammps2cif' 
_symmetry_space_group_name_H-M    'P1' 
_symmetry_Int_Tables_number       1 
_symmetry_cell_setting            triclinic 
loop_ 
_symmetry_equiv_pos_as_xyz 
  x,y,z 
_cell_length_a                    28.472425558961234 
_cell_length_b                    28.45290396573196 
_cell_length_c                    36.81090828393726 
_cell_angle_alpha                 90.10889026543674 
_cell_angle_beta                  90.0907012306116 
_cell_angle_gamma                 89.91249174583908 
loop_ 
_atom_site_label 
_atom_site_type_symbol 
_atom_site_fract_x 
_atom_site_fract_y 
_atom_site_fract_z 
_atom_site_charge 
Fe1        Fe  0.99053854  0.70325112  0.57743499     1.65780
Fe2        Fe  0.05823840  0.63329849  0.62936404     1.73250
Fe3        Fe  0.05126352  0.74909918  0.64684243     1.54410
O4          O  0.04272535  0.79745352  0.60428114    -0.82300
O5          O  0.04352484  0.64054933  0.68313953    -0.80610
O6          O  0.03425167  0.75278026  0.55537212    -0.84810
O7          O  0.95449671  0.75475439  0.60637586    -0.79660
O8          O  0.11540821  0.74053762  0.62866861    -0.81440
O9          O  0.99227405  0.60151186  0.62510049    -0.84180
C10         C  0.95380999  0.77163799  0.63854942     0.96580
C11         C  0.04717348  0.79088291  0.57023823     1.04020
O12         O  0.03287118  0.69452387  0.61796808    -1.13160
O13         O  0.07615385  0.61961763  0.57711219    -0.75600
O14         O  0.02267975  0.65452903  0.54250869    -0.79080
O15         O  0.98343916  0.75999109  0.66290220    -0.79770
C16         C  0.05922496  0.62933431  0.54636453     0.95490
O17         O  0.94562778  0.65451175  0.59846074    -0.77730
O18         O  0.12586718  0.66296583  0.63402456    -0.82920
C19         C  0.06805734  0.66744683  0.70241358     0.98110
C20         C  0.14133346  0.70474370  0.62862427     1.04030
O21         O  0.07254733  0.71046550  0.69360105    -0.78570
C22         C  0.95160460  0.61658933  0.61605907     1.02330
Fe23       Fe  0.21766522  0.47820192  0.92393647     1.65780
Fe24       Fe  0.14847634  0.54410572  0.87071998     1.73250
Fe25       Fe  0.26438278  0.53982931  0.85633091     1.54410
O26         O  0.31226689  0.53144584  0.89957671    -0.82300
O27         O  0.15977217  0.52383850  0.81861887    -0.80610
O28         O  0.26587198  0.52275349  0.94709505    -0.84810
O29         O  0.27007671  0.44289740  0.89573099    -0.79660
O30         O  0.25294351  0.60333434  0.87622517    -0.81440
O31         O  0.11610957  0.47879501  0.87710921    -0.84180
C32         C  0.28792362  0.44218958  0.86387787     0.96580
C33         C  0.30473136  0.53560732  0.93351901     1.04020
O34         O  0.20954216  0.52014824  0.88380468    -1.13160
O35         O  0.13313778  0.56482801  0.92256616    -0.75600
O36         O  0.16716409  0.51027684  0.95701479    -0.79080
O37         O  0.27768368  0.47247096  0.83961206    -0.79770
C38         C  0.14078226  0.54610983  0.95322714     0.95490
O39         O  0.17025660  0.43212517  0.90183395    -0.77730
O40         O  0.17747875  0.61182037  0.86177315    -0.82920
C41         C  0.18278610  0.55217831  0.79965876     0.98110
C42         C  0.21875126  0.62860948  0.86731097     1.04030
O43         O  0.22539595  0.56009375  0.80865362    -0.78570
C44         C  0.13182887  0.43797600  0.88495478     1.02330
Fe45       Fe  0.48746224  0.74336762  0.57511514     1.65780
Fe46       Fe  0.42076438  0.81798678  0.62427749     1.73250
Fe47       Fe  0.42266161  0.70219818  0.64336848     1.54420
O48         O  0.43237347  0.65127627  0.60248166    -0.82300
O49         O  0.43092245  0.81234798  0.67904291    -0.80610
O50         O  0.44425037  0.69379151  0.55318249    -0.84810
O51         O  0.52156178  0.69343317  0.60672464    -0.79660
O52         O  0.36031923  0.71265575  0.62186081    -0.81440
O53         O  0.48824876  0.84750918  0.62172885    -0.84180
C54         C  0.52059813  0.67771303  0.63920274     0.96580
C55         C  0.43082649  0.65621702  0.56815463     1.04020
O56         O  0.44445344  0.75532865  0.61457175    -1.13160
O57         O  0.40653190  0.83081834  0.57122641    -0.75600
O58         O  0.45730535  0.79008575  0.53800600    -0.79080
O59         O  0.48919222  0.68942468  0.66221729    -0.79770
C60         C  0.42259246  0.81780175  0.54093676     0.95490
O61         O  0.53218650  0.79223294  0.59503431    -0.77730
O62         O  0.35192581  0.79063984  0.62651981    -0.82920
C63         C  0.40516025  0.78603790  0.69784808     0.98110
C64         C  0.33554030  0.74925857  0.62056499     1.04030
O65         O  0.39978893  0.74308507  0.68880943    -0.78570
C66         C  0.52795104  0.83121666  0.61134601     1.02330
Fe67       Fe  0.26747894  0.97389075  0.92562120     1.65780
Fe68       Fe  0.33290139  0.90663501  0.87132222     1.73250
Fe69       Fe  0.21740596  0.91579850  0.85694360     1.54420
O70         O  0.17179725  0.92265772  0.90189311    -0.82300
O71         O  0.32143324  0.93004727  0.82049763    -0.80610
O72         O  0.22043156  0.92864638  0.94871124    -0.84810
O73         O  0.21356283  0.01087776  0.90017012    -0.79660
O74         O  0.22595644  0.85063103  0.87353101    -0.81440
O75         O  0.36763272  0.97016662  0.87941007    -0.84180
C76         C  0.19577457  0.01358353  0.86837519     0.96580
C77         C  0.18109736  0.91639843  0.93553291     1.04020
O78         O  0.27306955  0.93221009  0.88493919    -1.13160
O79         O  0.34761221  0.88362467  0.92226918    -0.75600
O80         O  0.32014299  0.94168496  0.95671606    -0.79080
O81         O  0.20605479  0.98467893  0.84306347    -0.79770
C82         C  0.34462117  0.90458756  0.95250049     0.95490
O83         O  0.31408402  0.01912567  0.90242289    -0.77730
O84         O  0.30165327  0.84030596  0.86102086    -0.82920
C85         C  0.29887748  0.90236797  0.80081226     0.98110
C86         C  0.25988043  0.82452892  0.86585222     1.04030
O87         O  0.25531921  0.89656949  0.80801871    -0.78570
C88         C  0.35277871  0.01154157  0.88628657     1.02330
Fe89       Fe  0.71199850  0.47660407  0.57410813     1.65780
Fe90       Fe  0.64551246  0.40575549  0.62554326     1.73250
Fe91       Fe  0.76097499  0.41543743  0.64112711     1.54410
O92         O  0.80689203  0.42718291  0.59764892    -0.82300
O93         O  0.65305101  0.42089927  0.67932491    -0.80610
O94         O  0.75963663  0.43183557  0.55002099    -0.84810
O95         O  0.76516977  0.51212088  0.60201886    -0.79660
O96         O  0.75365911  0.35123041  0.62149375    -0.81440
O97         O  0.61165717  0.47089282  0.62134180    -0.84180
C98         C  0.78203445  0.51292357  0.63422614     0.96580
C99         C  0.79802958  0.41886065  0.56439277     1.04020
O100        O  0.70531246  0.43324017  0.61388788    -1.13160
O101        O  0.63228821  0.38743324  0.57303953    -0.75600
O102        O  0.66072320  0.44642505  0.54044745    -0.79080
O103        O  0.77049495  0.48306657  0.65834222    -0.79770
C104        C  0.63778509  0.40831282  0.54312756     0.95490
O105        O  0.66463653  0.52048065  0.59819096    -0.77730
O106        O  0.67749411  0.33916562  0.63131543    -0.82920
C107        C  0.68106680  0.39681418  0.69802996     0.98110
C108        C  0.71960279  0.32417463  0.62630585     1.04030
O109        O  0.72387189  0.39275062  0.68832491    -0.78570
C110        C  0.62663141  0.51249724  0.61519211     1.02330
Fe111      Fe  0.49583466  0.24500424  0.92310360     1.65780
Fe112      Fe  0.55825749  0.31865935  0.87049092     1.73250
Fe113      Fe  0.55785501  0.20247325  0.85312828     1.54410
O114        O  0.55287754  0.15345602  0.89550147    -0.82300
O115        O  0.54098298  0.30887587  0.81757687    -0.80610
O116        O  0.54158952  0.19670969  0.94493565    -0.84810
O117        O  0.46114036  0.19265220  0.89413889    -0.79660
O118        O  0.62223684  0.21492750  0.87057120    -0.81440
O119        O  0.49138337  0.34724591  0.87577066    -0.84180
C120        C  0.46065162  0.17583253  0.86193987     0.96580
C121        C  0.55553321  0.15920071  0.92974660     1.04020
O122        O  0.53715426  0.25592830  0.88247813    -1.13160
O123        O  0.57629399  0.33447123  0.92259633    -0.75600
O124        O  0.52650592  0.29499009  0.95738132    -0.79080
O125        O  0.49033478  0.18745763  0.83767618    -0.79770
C126        C  0.55946543  0.32461991  0.95343219     0.95490
O127        O  0.44831792  0.29219869  0.90281645    -0.77730
O128        O  0.62731069  0.29329765  0.86360560    -0.82920
C129        C  0.56855412  0.28543884  0.79815472     0.98110
C130        C  0.64542888  0.25239306  0.86781699     1.04030
O131        O  0.57569602  0.24241721  0.80600726    -0.78570
C132        C  0.45180047  0.33035221  0.88524513     1.02330
Fe133      Fe  0.76767224  0.98004475  0.57436202     1.65780
Fe134      Fe  0.83325566  0.04551962  0.62983314     1.73250
Fe135      Fe  0.71729587  0.03566272  0.64411911     1.54410
O136        O  0.67136513  0.02970186  0.59932700    -0.82300
O137        O  0.82321796  0.02225529  0.68106731    -0.80610
O138        O  0.72005277  0.02547245  0.55251143    -0.84810
O139        O  0.71467753  0.94274808  0.59973203    -0.79660
O140        O  0.72560117  0.10143344  0.62877045    -0.81440
O141        O  0.86780290  0.98160194  0.62135015    -0.84180
C142        C  0.69613255  0.93866074  0.63115348     0.96580
C143        C  0.68110270  0.03809950  0.56616160     1.04020
O144        O  0.77328451  0.02014938  0.61604292    -1.13160
O145        O  0.84679197  0.06994222  0.57904479    -0.75600
O146        O  0.81909557  0.01379421  0.54297790    -0.79080
O147        O  0.70612605  0.96653941  0.65715046    -0.79770
C148        C  0.84090298  0.05231130  0.54784740     0.95490
O149        O  0.81446500  0.93408966  0.59644018    -0.77730
O150        O  0.80194595  0.11167839  0.64006721    -0.82920
C151        C  0.79811297  0.04743097  0.70115361     0.98110
C152        C  0.76025347  0.12752323  0.63468991     1.04030
O153        O  0.75494022  0.05330338  0.69283936    -0.78570
C154        C  0.85247976  0.94059338  0.61375149     1.02330
Fe155      Fe  0.98321313  0.20791521  0.92476721     1.65780
Fe156      Fe  0.92118183  0.13172660  0.87366850     1.73250
Fe157      Fe  0.92063178  0.24675748  0.85311510     1.54420
O158        O  0.92421184  0.29740561  0.89415881    -0.82300
O159        O  0.93930810  0.13866808  0.82081558    -0.80610
O160        O  0.93720171  0.25746515  0.94501578    -0.84810
O161        O  0.01775050  0.25921169  0.89484561    -0.79660
O162        O  0.85594172  0.23415728  0.87046379    -0.81440
O163        O  0.98769093  0.10355375  0.88078095    -0.84180
C164        C  0.01774984  0.27571986  0.86260498     0.96580
C165        C  0.92206663  0.29354525  0.92849113     1.04020
O166        O  0.94208291  0.19506668  0.88400012    -1.13160
O167        O  0.90180995  0.11976393  0.92562357    -0.75600
O168        O  0.95166423  0.15985616  0.96031326    -0.79080
O169        O  0.98832541  0.26302580  0.83825467    -0.79770
C170        C  0.91678467  0.13242768  0.95637651     0.95490
O171        O  0.03155381  0.15953511  0.90614428    -0.77730
O172        O  0.85202075  0.15563464  0.86579316    -0.82920
C173        C  0.91257856  0.16101468  0.79999223     0.98110
C174        C  0.83335879  0.19612268  0.87054356     1.04030
O175        O  0.90441535  0.20423697  0.80675408    -0.78570
C176        C  0.02744444  0.12012616  0.89005544     1.02330
Fe177      Fe  0.76234872  0.47398823  0.07190683     1.65780
Fe178      Fe  0.84096446  0.40223566  0.10818158     1.73250
Fe179      Fe  0.72934033  0.39741890  0.13815808     1.54410
O180        O  0.69479541  0.46099120  0.14875368    -0.82300
O181        O  0.81434516  0.33852715  0.08717245    -0.80610
O182        O  0.72211556  0.51262823  0.10814322    -0.84810
O183        O  0.70312132  0.44103526  0.05403321    -0.79660
O184        O  0.77202327  0.40089471  0.18540917    -0.81440
O185        O  0.86171116  0.42475562  0.05820890    -0.84180
C186        C  0.67738322  0.40731579  0.06402292     0.96580
C187        C  0.69291742  0.50081402  0.13274602     1.04020
O188        O  0.77693722  0.42620891  0.10737468    -1.13160
O189        O  0.86312476  0.46749121  0.12780057    -0.75600
O190        O  0.82165712  0.51179959  0.08866004    -0.79080
O191        O  0.68342396  0.38680955  0.09444515    -0.79770
C192        C  0.85308350  0.50744015  0.11348606     0.95490
O193        O  0.79595413  0.43691825  0.03001433    -0.77730
O194        O  0.83698705  0.37525423  0.15896939    -0.82920
C195        C  0.77941706  0.31623150  0.10089115     0.98110
C196        C  0.81265714  0.38147395  0.18704698     1.04030
O197        O  0.75668828  0.33182557  0.12808800    -0.78570
C198        C  0.83766667  0.42176081  0.02988435     1.02330
Fe199      Fe  0.98760005  0.25415202  0.43144407     1.65780
Fe200      Fe  0.91515298  0.32517076  0.38808453     1.73250
Fe201      Fe  0.92331973  0.21207598  0.36048947     1.54420
O202        O  0.99033198  0.18380548  0.35432033    -0.82300
O203        O  0.85302369  0.29452850  0.40505916    -0.80610
O204        O  0.03272673  0.21685265  0.39885426    -0.84810
O205        O  0.95626783  0.19359421  0.44946742    -0.79660
O206        O  0.92674996  0.25335822  0.31285948    -0.81440
O207        O  0.92968755  0.35014758  0.43926392    -0.84180
C208        C  0.92623545  0.16530653  0.43647496     0.96580
C209        C  0.02687351  0.18574282  0.37439935     1.04020
O210        O  0.94354620  0.26319410  0.39231642    -1.13160
O211        O  0.97945514  0.35073832  0.37163457    -0.75600
O212        O  0.02228666  0.31538353  0.41520076    -0.79080
O213        O  0.91223209  0.16664917  0.40373027    -0.79770
C214        C  0.01831608  0.34381947  0.38830809     0.95490
O215        O  0.94425594  0.28614079  0.46953774    -0.77730
O216        O  0.89305212  0.31684110  0.33602998    -0.82920
C217        C  0.83484748  0.25756584  0.39090621     0.98110
C218        C  0.90200753  0.29069663  0.30939208     1.04030
O219        O  0.85529915  0.23250221  0.36708804    -0.78570
C220        C  0.92674263  0.32668303  0.46789307     1.02330
Fe221      Fe  0.71953150  0.97978787  0.07210299     1.65780
Fe222      Fe  0.64195820  0.04925455  0.11137687     1.73250
Fe223      Fe  0.75389325  0.05187215  0.14154084     1.54410
O224        O  0.78617281  0.98688560  0.15189081    -0.82300
O225        O  0.66970090  0.11197739  0.09047812    -0.80610
O226        O  0.76316365  0.94075272  0.10566355    -0.84810
O227        O  0.77640640  0.01651560  0.05339471    -0.79660
O228        O  0.71117656  0.04987912  0.18850151    -0.81440
O229        O  0.61913635  0.02748516  0.06151155    -0.84180
C230        C  0.80325631  0.04768220  0.06667397     0.96580
C231        C  0.78985507  0.94939341  0.13273490     1.04020
O232        O  0.70576145  0.02499169  0.10976852    -1.13160
O233        O  0.61968179  0.98372314  0.13013411    -0.75600
O234        O  0.66132063  0.94009072  0.09020941    -0.79080
O235        O  0.80071222  0.06198174  0.09927166    -0.79770
C236        C  0.62971033  0.94404814  0.11505338     0.95490
O237        O  0.68350552  0.01756298  0.03170100    -0.77730
O238        O  0.64710246  0.07741965  0.16214445    -0.82920
C239        C  0.70492085  0.13433173  0.10387474     0.98110
C240        C  0.67282330  0.07330077  0.18976807     1.04030
O241        O  0.72880676  0.11858636  0.13058311    -0.78570
C242        C  0.64170004  0.03212010  0.03266680     1.02330
Fe243      Fe  0.49237236  0.20411670  0.42990629     1.65780
Fe244      Fe  0.55974752  0.13484579  0.37730964     1.73250
Fe245      Fe  0.55053075  0.25060595  0.35912830     1.54420
O246        O  0.48210308  0.26102471  0.34442439    -0.82300
O247        O  0.62828537  0.16591431  0.37454575    -0.80610
O248        O  0.45483228  0.25579617  0.40139026    -0.84810
O249        O  0.53661281  0.25336818  0.45113341    -0.79660
O250        O  0.57132357  0.21226211  0.31163217    -0.81440
O251        O  0.57720860  0.11956488  0.42895981    -0.84180
C252        C  0.55047398  0.29072757  0.43598261     0.96580
C253        C  0.45345638  0.27313535  0.36931665     1.04020
O254        O  0.53383138  0.19582691  0.38873261    -1.13160
O255        O  0.49305352  0.10283443  0.38057747    -0.75600
O256        O  0.44737853  0.15455129  0.40963221    -0.79080
O257        O  0.54265547  0.29863634  0.40245663    -0.79770
C258        C  0.45252827  0.11725739  0.39107347     0.95490
O259        O  0.52644044  0.15596436  0.46478604    -0.77730
O260        O  0.54453286  0.14269675  0.32413856    -0.82920
C261        C  0.64243431  0.20867969  0.37872344     0.98110
C262        C  0.56977783  0.16833122  0.30482016     1.04030
O263        O  0.61549581  0.24322641  0.37570962    -0.78570
C264        C  0.56217831  0.12972498  0.46009163     1.02330
Fe265      Fe  0.48695349  0.70253317  0.07342013     1.65780
Fe266      Fe  0.41988775  0.62655034  0.11748845     1.73250
Fe267      Fe  0.41490360  0.74238762  0.14117004     1.54420
O268        O  0.48039694  0.77128509  0.15286261    -0.82300
O269        O  0.35393439  0.64994933  0.09902229    -0.80610
O270        O  0.52554822  0.74916392  0.10561877    -0.84810
O271        O  0.45136855  0.75854353  0.05251383    -0.79660
O272        O  0.41153908  0.70414157  0.19057289    -0.81440
O273        O  0.43846256  0.60152794  0.06769787    -0.84180
C274        C  0.42382105  0.78952505  0.06504595     0.96580
C275        C  0.51670070  0.77605171  0.13270447     1.04020
O276        O  0.44197902  0.69115289  0.11203353    -1.13160
O277        O  0.48682075  0.60638555  0.13474333    -0.75600
O278        O  0.52787719  0.64601320  0.09266561    -0.79080
O279        O  0.40941575  0.78857471  0.09762371    -0.79770
C280        C  0.52554671  0.61569893  0.11841375     0.95490
O281        O  0.44823655  0.66344837  0.03468257    -0.77730
O282        O  0.39663917  0.63326375  0.16888456    -0.82920
C283        C  0.33176182  0.68775693  0.10756327     0.98110
C284        C  0.39627962  0.66226613  0.19454342     1.04030
O285        O  0.34874118  0.71985798  0.12782797    -0.78570
C286        C  0.43171974  0.62254808  0.03844348     1.02330
Fe287      Fe  0.26089977  0.48224535  0.42873969     1.65780
Fe288      Fe  0.32937879  0.54854734  0.37578370     1.73250
Fe289      Fe  0.21312692  0.54355773  0.36050151     1.54410
O290        O  0.20041551  0.47537632  0.34509316    -0.82300
O291        O  0.30016167  0.61781965  0.37047843    -0.80610
O292        O  0.20619824  0.44774195  0.40179933    -0.84810
O293        O  0.21498450  0.52852706  0.45192438    -0.79660
O294        O  0.25116978  0.56356442  0.31234810    -0.81440
O295        O  0.34683661  0.56671384  0.42744489    -0.84180
C296        C  0.17648747  0.54239648  0.43822302     0.96580
C297        C  0.18869516  0.44631201  0.36981244     1.04020
O298        O  0.26843791  0.52468535  0.38852065    -1.13160
O299        O  0.36057085  0.48137829  0.37979234    -0.75600
O300        O  0.30656163  0.43566241  0.40585167    -0.79080
O301        O  0.16693304  0.53571751  0.40475877    -0.79770
C302        C  0.34441353  0.44074727  0.38814557     0.95490
O303        O  0.31398892  0.51160410  0.46147007    -0.77730
O304        O  0.31834328  0.53055614  0.32346386    -0.82920
C305        C  0.25827032  0.63398994  0.37527774     0.98110
C306        C  0.29416821  0.55704580  0.30391165     1.04030
O307        O  0.22243273  0.60851697  0.37805394    -0.78570
C308        C  0.34192149  0.54613811  0.45754423     1.02330
Fe309      Fe  0.99284013  0.74954652  0.07152163     1.65780
Fe310      Fe  0.06478172  0.82387868  0.11238215     1.73250
Fe311      Fe  0.06370832  0.71201514  0.14029259     1.54410
O312        O  0.99956856  0.67849447  0.14706401    -0.82300
O313        O  0.12794329  0.79406730  0.09201720    -0.80610
O314        O  0.95100285  0.70861242  0.10518567    -0.84810
O315        O  0.02571261  0.68984978  0.05344597    -0.79660
O316        O  0.05709384  0.75308709  0.18777939    -0.81440
O317        O  0.04337070  0.84701537  0.06275233    -0.84180
C318        C  0.05849884  0.66323554  0.06453289     0.96580
C319        C  0.96072727  0.67841025  0.12972271     1.04020
O320        O  0.03820299  0.76120648  0.10945127    -1.13160
O321        O  0.99974053  0.84805641  0.13087693    -0.75600
O322        O  0.95583956  0.80984065  0.08918093    -0.79080
O323        O  0.07717019  0.66802679  0.09585422    -0.79770
C324        C  0.96019731  0.84021688  0.11500757     0.95490
O325        O  0.03397993  0.78342464  0.03169299    -0.77730
O326        O  0.08987628  0.81660650  0.16386300    -0.82920
C327        C  0.14747174  0.75834925  0.10721794     0.98110
C328        C  0.08039884  0.79137154  0.19092239     1.04030
O329        O  0.12935926  0.73943639  0.13494485    -0.78570
C330        C  0.05014595  0.82458636  0.03409461     1.02330
Fe331      Fe  0.21835967  0.96734535  0.43299719     1.65780
Fe332      Fe  0.13752728  0.90910477  0.38712747     1.73250
Fe333      Fe  0.25099270  0.90287819  0.35906632     1.54410
O334        O  0.28155316  0.96794745  0.35073973    -0.82300
O335        O  0.15816681  0.84110463  0.40121523    -0.80610
O336        O  0.26403066  0.00742414  0.40197225    -0.84810
O337        O  0.27342266  0.92687008  0.44988140    -0.79660
O338        O  0.20953039  0.90709165  0.31150014    -0.81440
O339        O  0.11571200  0.92597070  0.43821755    -0.84180
C340        C  0.30189620  0.89954172  0.43404628     0.96580
C341        C  0.28778905  0.00201868  0.37283863     1.04020
O342        O  0.20309206  0.92766903  0.39197020    -1.13160
O343        O  0.12100580  0.97738942  0.37308124    -0.75600
O344        O  0.16282113  0.01176368  0.41779543    -0.79080
O345        O  0.29949581  0.88999846  0.40039342    -0.79770
C346        C  0.13180797  0.01322638  0.39240226     0.95490
O347        O  0.17939198  0.92670339  0.46994105    -0.77730
O348        O  0.14086163  0.88859418  0.33508821    -0.82920
C349        C  0.19327539  0.81885280  0.38759108     0.98110
C350        C  0.16791338  0.89092407  0.30842917     1.04030
O351        O  0.22514752  0.83739700  0.36815292    -0.78570
C352        C  0.13687437  0.91495831  0.46662762     1.02330
C353        C  0.17171055  0.83167201  0.25850876    -0.26950
C354        C  0.14840584  0.86973981  0.27475402    -0.15020
C355        C  0.10054591  0.87732711  0.26606156     0.35610
C356        C  0.07715835  0.84741874  0.24164040    -0.26390
C357        C  0.10022801  0.80936249  0.22535737    -0.15630
C358        C  0.14839786  0.80194859  0.23346505     0.36700
N359        N  0.17375353  0.76474564  0.21570273    -0.89880
H360        H  0.20773759  0.82427657  0.26615459     0.17810
H361        H  0.04119136  0.85533009  0.23406376     0.17800
N362        N  0.07537654  0.91558611  0.28234270    -0.88910
H363        H  0.20793294  0.76244437  0.22596827     0.35180
H364        H  0.17720640  0.77398833  0.18839532     0.40280
H365        H  0.04663856  0.90174534  0.29635149     0.39900
H366        H  0.06250586  0.93703766  0.26154595     0.34790
C367        C  0.25663891  0.70889721  0.40824209    -0.26950
C368        C  0.24669072  0.68394546  0.37634048    -0.15020
C369        C  0.21130268  0.70109086  0.35241085     0.35610
C370        C  0.18802246  0.74273545  0.36055831    -0.26390
C371        C  0.19907314  0.76846969  0.39161605    -0.15630
C372        C  0.23280964  0.75080221  0.41631838     0.36700
N373        N  0.24405499  0.77506200  0.44940818    -0.89880
H374        H  0.28119419  0.69454543  0.42786093     0.17810
H375        H  0.16336349  0.75697836  0.34091359     0.17800
N376        N  0.19705732  0.67670476  0.31995980    -0.88910
H377        H  0.23669973  0.75235878  0.47096005     0.35180
H378        H  0.22191218  0.80401796  0.45294941     0.40280
H379        H  0.21582350  0.64574702  0.31622344     0.39900
H380        H  0.20493496  0.69825580  0.29781083     0.34790
C381        C  0.27460913  0.74088402  0.07800592    -0.26950
C382        C  0.28366169  0.69706888  0.09456940    -0.15020
C383        C  0.24607184  0.67043531  0.10764344     0.35610
C384        C  0.20090858  0.68990372  0.10692452    -0.26390
C385        C  0.19271279  0.73675951  0.09563866    -0.15630
C386        C  0.22952807  0.76160709  0.07903479     0.36700
N387        N  0.22203252  0.80833451  0.06543867    -0.89880
H388        H  0.30380601  0.76066311  0.06716149     0.17810
H389        H  0.17246568  0.66953438  0.11839412     0.17800
N390        N  0.25448856  0.62614936  0.12523630    -0.88910
H391        H  0.25268581  0.82118958  0.05344067     0.35180
H392        H  0.21498086  0.83015500  0.08765814     0.40280
H393        H  0.26587368  0.60254403  0.10539369     0.39900
H394        H  0.22324496  0.61238928  0.13561560     0.34790
C395        C  0.30317135  0.62904231  0.26354865    -0.26950
C396        C  0.31951546  0.58460406  0.27493766    -0.15020
C397        C  0.36463226  0.57028481  0.26290313     0.35610
C398        C  0.39162416  0.59966776  0.24051026    -0.26390
C399        C  0.37505923  0.64350845  0.22855363    -0.15630
C400        C  0.33015633  0.65833787  0.24034919     0.36700
N401        N  0.31133654  0.70228291  0.22773236    -0.89880
H402        H  0.26918921  0.64102829  0.27246512     0.17810
H403        H  0.42494891  0.58662531  0.23038719     0.17800
N404        N  0.38300617  0.52501754  0.27243551    -0.88910
H405        H  0.27841261  0.70853679  0.23932325     0.35180
H406        H  0.30587037  0.69935497  0.19972682     0.40280
H407        H  0.41494147  0.52994786  0.28597334     0.39900
H408        H  0.38971263  0.50641475  0.24846845     0.34790
C409        C  0.41357686  0.04379489  0.36816456    -0.26950
C410        C  0.40920291  0.09001014  0.38137714    -0.15020
C411        C  0.36306457  0.10924511  0.38475173     0.35610
C412        C  0.32372409  0.08108221  0.37816371    -0.26390
C413        C  0.32828521  0.03405894  0.36762083    -0.15630
C414        C  0.37376825  0.01573063  0.36111655     0.36700
N415        N  0.37959464  0.96761856  0.34996476    -0.89880
H416        H  0.44823053  0.02877620  0.36449836     0.17810
H417        H  0.28905060  0.09552612  0.38311733     0.17800
N418        N  0.35435516  0.15705099  0.39510707    -0.88910
H419        H  0.41520849  0.95883795  0.34841253     0.35180
H420        H  0.36626638  0.96464117  0.32358650     0.40280
H421        H  0.37231557  0.17938001  0.37740647     0.39900
H422        H  0.36559560  0.16238408  0.42181904     0.34790
C423        C  0.37587011  0.31134853  0.37410766    -0.26950
C424        C  0.42296583  0.31438006  0.36407552    -0.15020
C425        C  0.44308752  0.35898697  0.35813068     0.35610
C426        C  0.41668663  0.39989099  0.36481621    -0.26390
C427        C  0.37014853  0.39711107  0.37722581    -0.15630
C428        C  0.34880959  0.35200122  0.37969104     0.36700
N429        N  0.29980575  0.34734666  0.38809452    -0.89880
H430        H  0.36056277  0.27701477  0.37872417     0.17810
H431        H  0.43343531  0.43381683  0.36175923     0.17800
N432        N  0.49140139  0.36294025  0.34779871    -0.88910
H433        H  0.29012890  0.31196358  0.38960650     0.35180
H434        H  0.28115406  0.36163809  0.36624992     0.40280
H435        H  0.50889618  0.38237826  0.36778964     0.39900
H436        H  0.49291650  0.38188062  0.32352217     0.34790
C437        C  0.87478173  0.93637537  0.14824596    -0.26950
C438        C  0.83102578  0.91707223  0.13824314    -0.15020
C439        C  0.83023136  0.87035973  0.12507463     0.35610
C440        C  0.87265588  0.84603038  0.11903593    -0.26390
C441        C  0.91666824  0.86662756  0.12612598    -0.15630
C442        C  0.91749367  0.91189053  0.14222159     0.36700
N443        N  0.96152873  0.93398769  0.15069673    -0.89880
H444        H  0.87609009  0.97226059  0.15808055     0.17810
H445        H  0.87122447  0.81072215  0.10801247     0.17800
N446        N  0.78622232  0.84800499  0.11707828    -0.88910
H447        H  0.95600708  0.96677463  0.16284942     0.35180
H448        H  0.97881181  0.94039214  0.12616321     0.40280
H449        H  0.76899473  0.84344141  0.14185644     0.39900
H450        H  0.79156374  0.81435011  0.10638500     0.34790
C451        C  0.55488268  0.90430679  0.13419056    -0.26950
C452        C  0.60278512  0.90068258  0.12548418    -0.15020
C453        C  0.62341307  0.85512165  0.12528535     0.35610
C454        C  0.59562273  0.81499077  0.13093490    -0.26390
C455        C  0.54719750  0.81845643  0.13739666    -0.15630
C456        C  0.52689821  0.86395464  0.13995947     0.36700
N457        N  0.47716760  0.86907200  0.14549950    -0.89880
H458        H  0.53858314  0.93873321  0.13474039     0.17810
H459        H  0.61176457  0.78056970  0.12878431     0.17800
N460        N  0.67270199  0.84828709  0.11989638    -0.88910
H461        H  0.46727921  0.90443168  0.14414293     0.35180
H462        H  0.46986316  0.85809347  0.17197079     0.40280
H463        H  0.69062415  0.86967166  0.13839183     0.39900
H464        H  0.68153087  0.85805876  0.09345957     0.34790
C465        C  0.61459243  0.16946052  0.24564527    -0.26950
C466        C  0.60043863  0.14508009  0.27675600    -0.15020
C467        C  0.61704998  0.09804627  0.28155835     0.35610
C468        C  0.64434772  0.07600668  0.25428948    -0.26390
C469        C  0.65594408  0.09964262  0.22234124    -0.15630
C470        C  0.64146538  0.14713636  0.21844724     0.36700
N471        N  0.65298182  0.17253183  0.18608279    -0.89880
H472        H  0.60336712  0.20550099  0.24171736     0.17810
H473        H  0.65467587  0.03954648  0.25725036     0.17800
N474        N  0.60601282  0.07244749  0.31408630    -0.88910
H475        H  0.67185589  0.20252814  0.19355540     0.35180
H476        H  0.62165858  0.18342930  0.17382874     0.40280
H477        H  0.62343361  0.08890026  0.33561072     0.39900
H478        H  0.61932557  0.03821516  0.31279846     0.34790
C479        C  0.09263596  0.07205330  0.35129166    -0.26950
C480        C  0.10689793  0.05842864  0.38638729    -0.15020
C481        C  0.09796510  0.08874867  0.41589863     0.35610
C482        C  0.07588042  0.13187617  0.40974824    -0.26390
C483        C  0.06035388  0.14551757  0.37498326    -0.15630
C484        C  0.06987304  0.11543283  0.34509079     0.36700
N485        N  0.05772061  0.12769148  0.30837590    -0.89880
H486        H  0.09983143  0.04914495  0.32840800     0.17810
H487        H  0.06780226  0.15359839  0.43313793     0.17800
N488        N  0.10930929  0.07473519  0.45244052    -0.88910
H489        H  0.08869767  0.12724367  0.29315361     0.35180
H490        H  0.04554407  0.16221637  0.30683211     0.40280
H491        H  0.08828220  0.04580045  0.45881999     0.39900
H492        H  0.10068813  0.10117088  0.47104835     0.34790
C493        C  0.10485163  0.34567348  0.38241728    -0.26950
C494        C  0.06164032  0.36840279  0.37647957    -0.15020
C495        C  0.06148966  0.41404384  0.36140906     0.35610
C496        C  0.10458825  0.43706702  0.35548116    -0.26390
C497        C  0.14752248  0.41563765  0.36459654    -0.15630
C498        C  0.14764897  0.36892750  0.37718955     0.36700
N499        N  0.19110167  0.34554435  0.38550006    -0.89880
H500        H  0.10528269  0.31005506  0.39280205     0.17810
H501        H  0.10449005  0.47329192  0.34641425     0.17800
N502        N  0.01795977  0.43811758  0.35457193    -0.88910
H503        H  0.18521757  0.31012389  0.39146360     0.35180
H504        H  0.20454815  0.36045610  0.40927907     0.40280
H505        H  0.00164737  0.42127340  0.33268638     0.39900
H506        H  0.02422878  0.47261559  0.34614504     0.34790
C507        C  0.75303442  0.27983921  0.39792814    -0.26950
C508        C  0.78642065  0.24449843  0.39847050    -0.15020
C509        C  0.77238524  0.19691169  0.39730170     0.35610
C510        C  0.72511833  0.18564423  0.39174678    -0.26390
C511        C  0.69167610  0.22124911  0.38738826    -0.15630
C512        C  0.70628029  0.26937017  0.39162357     0.36700
N513        N  0.67583607  0.30924830  0.38767897    -0.89880
H514        H  0.76384396  0.31637921  0.39870487     0.17810
H515        H  0.71501113  0.14904785  0.38959685     0.17800
N516        N  0.80641397  0.16002368  0.40059758    -0.88910
H517        H  0.64942358  0.30813117  0.40723253     0.35180
H518        H  0.66190393  0.31002774  0.36140105     0.40280
H519        H  0.80477674  0.13925434  0.37716792     0.39900
H520        H  0.79706120  0.13908241  0.42274304     0.34790
C521        C  0.85793528  0.59521255  0.11582414    -0.26950
C522        C  0.87822814  0.55148321  0.12486026    -0.15020
C523        C  0.92250918  0.55148832  0.14238020     0.35610
C524        C  0.94695063  0.59434666  0.14698544    -0.26390
C525        C  0.92828052  0.63751429  0.13472838    -0.15630
C526        C  0.88225838  0.63773304  0.12056847     0.36700
N527        N  0.86038526  0.68095353  0.10991934    -0.89880
H528        H  0.82322092  0.59655680  0.10375869     0.17810
H529        H  0.98216917  0.59342942  0.15812958     0.17800
N530        N  0.94378902  0.50806718  0.15369476    -0.88910
H531        H  0.82918721  0.68460797  0.12460767     0.35180
H532        H  0.85174340  0.67856190  0.08235920     0.40280
H533        H  0.92379921  0.49497565  0.17520515     0.39900
H534        H  0.97741274  0.51400191  0.16418418     0.34790
C535        C  0.56649379  0.54390307  0.14305215    -0.26950
C536        C  0.56961621  0.58945337  0.12847382    -0.15020
C537        C  0.61501835  0.60837474  0.12233876     0.35610
C538        C  0.65523699  0.58020790  0.12786901    -0.26390
C539        C  0.65192340  0.53316456  0.13923729    -0.15630
C540        C  0.60683089  0.51561611  0.14847072     0.36700
N541        N  0.60154192  0.46809625  0.16099336    -0.89880
H542        H  0.53213633  0.52929790  0.14859919     0.17810
H543        H  0.68940527  0.59440452  0.12108570     0.17800
N544        N  0.62050583  0.65598301  0.11003555    -0.88910
H545        H  0.56608766  0.45991940  0.16472279     0.35180
H546        H  0.61726540  0.46604091  0.18662624     0.40280
H547        H  0.61294603  0.65643887  0.08224741     0.39900
H548        H  0.65556062  0.66650085  0.11235628     0.34790
C549        C  0.71329370  0.26463585  0.08486322    -0.26950
C550        C  0.76236114  0.27049810  0.08682168    -0.15020
C551        C  0.79129861  0.23069616  0.08471486     0.35610
C552        C  0.77038174  0.18585280  0.08561509    -0.26390
C553        C  0.72123191  0.18009717  0.08923435    -0.15630
C554        C  0.69217146  0.22025166  0.08661936     0.36700
N555        N  0.64177265  0.21834244  0.08857083    -0.89880
H556        H  0.69086282  0.29527711  0.08577923     0.17810
H557        H  0.79291030  0.15519880  0.08677237     0.17800
N558        N  0.84148537  0.23575154  0.08523292    -0.88910
H559        H  0.63147175  0.23489152  0.11266642     0.35180
H560        H  0.62916282  0.18409610  0.08963307     0.40280
H561        H  0.85114334  0.25275325  0.06123039     0.39900
H562        H  0.85773474  0.20277096  0.08468181     0.34790
C563        C  0.80807618  0.33286142  0.24389816    -0.26950
C564        C  0.83418904  0.36187157  0.22081835    -0.15020
C565        C  0.88374436  0.36319118  0.22530689     0.35610
C566        C  0.90598611  0.33560545  0.25196350    -0.26390
C567        C  0.88007198  0.30643268  0.27489844    -0.15630
C568        C  0.83034251  0.30582063  0.27122441     0.36700
N569        N  0.80249180  0.27797908  0.29559349    -0.89880
H570        H  0.77040408  0.33050532  0.24014207     0.17810
H571        H  0.94359807  0.33875962  0.25586383     0.17800
N572        N  0.91180441  0.39314264  0.20284972    -0.88910
H573        H  0.76704090  0.27932215  0.28820353     0.35180
H574        H  0.80458431  0.29347926  0.32128578     0.40280
H575        H  0.93632033  0.37221170  0.18918851     0.39900
H576        H  0.93020126  0.41631763  0.21971770     0.34790
C577        C  0.90818560  0.39162851  0.99740763    -0.26950
C578        C  0.85900820  0.39722363  0.99819149    -0.15020
C579        C  0.83159617  0.37219330  0.97284046     0.35610
C580        C  0.85334118  0.34043568  0.94874340    -0.26390
C581        C  0.90206056  0.33253682  0.94999020    -0.15630
C582        C  0.93002079  0.35969715  0.97380745     0.36700
N583        N  0.98034322  0.35516818  0.97550029    -0.89880
H584        H  0.92997775  0.41079138  0.01650959     0.17810
H585        H  0.83175729  0.32004777  0.93029518     0.17800
N586        N  0.78151313  0.37648080  0.97314717    -0.88910
H587        H  0.99469697  0.38775404  0.96861061     0.35180
H588        H  0.99304066  0.33135196  0.95628530     0.40280
H589        H  0.77052831  0.38658184  0.94719920     0.39900
H590        H  0.76736883  0.34347350  0.97897115     0.34790
C591        C  0.91106586  0.09640628  0.01867050    -0.26950
C592        C  0.88938172  0.11594867  0.98785463    -0.15020
C593        C  0.83983909  0.11641426  0.98529911     0.35610
C594        C  0.81323038  0.09383596  0.01174299    -0.26390
C595        C  0.83464683  0.07199891  0.04139476    -0.15630
C596        C  0.88380503  0.07433357  0.04579397     0.36700
N597        N  0.90568291  0.05325620  0.07697327    -0.89880
H598        H  0.94901732  0.09661224  0.02077526     0.17810
H599        H  0.77526226  0.09330391  0.00927322     0.17800
N600        N  0.81673806  0.13970301  0.95552786    -0.88910
H601        H  0.94208131  0.05788041  0.07598477     0.35180
H602        H  0.89963114  0.01704931  0.07568021     0.40280
H603        H  0.82432232  0.17553682  0.95767103     0.39900
H604        H  0.78024506  0.13654031  0.95753410     0.34790
C605        C  0.84314894  0.15189400  0.75748843    -0.26950
C606        C  0.88537258  0.13373095  0.77180321    -0.15020
C607        C  0.89679917  0.08620480  0.76385868     0.35610
C608        C  0.86555033  0.05821420  0.74350641    -0.26390
C609        C  0.82302630  0.07593410  0.72967019    -0.15630
C610        C  0.81192823  0.12368252  0.73669842     0.36700
N611        N  0.76997154  0.14401974  0.72167522    -0.89880
H612        H  0.83365157  0.18797305  0.76342883     0.17810
H613        H  0.87533448  0.02224434  0.73735913     0.17800
N614        N  0.94038050  0.06622123  0.77632053    -0.88910
H615        H  0.76763477  0.17969458  0.72830673     0.35180
H616        H  0.74124433  0.12758585  0.73386595     0.40280
H617        H  0.96760213  0.08398343  0.76318406     0.39900
H618        H  0.94317447  0.03090526  0.76870592     0.34790
C619        C  0.88315608  0.05748289  0.48789510    -0.26950
C620        C  0.85911781  0.07952976  0.51665426    -0.15020
C621        C  0.85453969  0.12902182  0.51684809     0.35610
C622        C  0.87679791  0.15549479  0.48999265    -0.26390
C623        C  0.90258029  0.13387832  0.46229584    -0.15630
C624        C  0.90516950  0.08446012  0.46054678     0.36700
N625        N  0.93100496  0.06214571  0.43178262    -0.89880
H626        H  0.88625333  0.01953343  0.48755758     0.17810
H627        H  0.87399076  0.19351826  0.49059855     0.17800
N628        N  0.82722380  0.15226536  0.54445461    -0.88910
H629        H  0.92968364  0.02560481  0.43453993     0.35180
H630        H  0.96626233  0.07176669  0.43459935     0.40280
H631        H  0.79229887  0.14168774  0.54124678     0.39900
H632        H  0.82770742  0.18871714  0.54087575     0.34790
C633        C  0.66785718  0.08786492  0.51265714    -0.26950
C634        C  0.64802235  0.06423162  0.54220565    -0.15020
C635        C  0.59874089  0.06649736  0.54734634     0.35610
C636        C  0.57046895  0.09049246  0.52153040    -0.26390
C637        C  0.59077612  0.11152222  0.49080141    -0.15630
C638        C  0.64025338  0.11120901  0.48714774     0.36700
N639        N  0.66255853  0.13402617  0.45690397    -0.89880
H640        H  0.70564367  0.08798147  0.50910637     0.17810
H641        H  0.53262058  0.09080329  0.52444757     0.17800
N642        N  0.57750274  0.04351930  0.57789227    -0.88910
H643        H  0.69899343  0.12945699  0.45772344     0.35180
H644        H  0.65652713  0.17002029  0.45953303     0.40280
H645        H  0.58283989  0.00736582  0.57478504     0.39900
H646        H  0.54116465  0.04887263  0.57779036     0.34790
C647        C  0.60258046  0.39224211  0.97872287    -0.26950
C648        C  0.58076272  0.34897513  0.98516155    -0.15020
C649        C  0.58516848  0.32825708  0.01984906     0.35610
C650        C  0.61483145  0.34937268  0.04599169    -0.26390
C651        C  0.64052247  0.39045301  0.03809785    -0.15630
C652        C  0.63234888  0.41287681  0.00410201     0.36700
N653        N  0.65431821  0.45605254  0.99357009    -0.89880
H654        H  0.59834958  0.40945129  0.95265643     0.17810
H655        H  0.61901240  0.33264962  0.07217508     0.17800
N656        N  0.56166805  0.28484734  0.02785882    -0.88910
H657        H  0.64705474  0.48191020  0.01298533     0.35180
H658        H  0.69049382  0.45087704  0.99090590     0.40280
H659        H  0.52559831  0.29175724  0.02809442     0.39900
H660        H  0.57022861  0.27337715  0.05400661     0.34790
C661        C  0.62117992  0.10500541  0.94650270    -0.26950
C662        C  0.57525900  0.12131876  0.95275977    -0.15020
C663        C  0.54993548  0.10333797  0.98249282     0.35610
C664        C  0.57137680  0.07145261  0.00611522    -0.26390
C665        C  0.61860457  0.05746095  0.00177376    -0.15630
C666        C  0.64332778  0.07347349  0.97080685     0.36700
N667        N  0.69121423  0.05946698  0.96487076    -0.89880
H668        H  0.64055981  0.11859405  0.92349255     0.17810
H669        H  0.55119427  0.05925197  0.02916730     0.17800
N670        N  0.50228753  0.11691129  0.98946968    -0.88910
H671        H  0.70473010  0.07571813  0.94168535     0.35180
H672        H  0.69121688  0.02336101  0.95955186     0.40280
H673        H  0.48229076  0.10993521  0.96623096     0.39900
H674        H  0.50116982  0.15296599  0.99479418     0.34790
C675        C  0.71098104  0.21240919  0.84113011    -0.26950
C676        C  0.69536287  0.24464598  0.86742935    -0.15020
C677        C  0.72340017  0.25507067  0.89785774     0.35610
C678        C  0.76741788  0.23402881  0.90047936    -0.26390
C679        C  0.78318705  0.20227801  0.87384101    -0.15630
C680        C  0.75421132  0.18999816  0.84465241     0.36700
N681        N  0.76949942  0.15628457  0.81811578    -0.89880
H682        H  0.68805673  0.20292540  0.81871065     0.17810
H683        H  0.79035278  0.24382945  0.92276496     0.17800
N684        N  0.70825937  0.28569500  0.92666880    -0.88910
H685        H  0.74373353  0.15168139  0.79818544     0.35180
H686        H  0.77302707  0.12392383  0.83124738     0.40280
H687        H  0.67433938  0.29839837  0.92237123     0.39900
H688        H  0.73024943  0.31499222  0.92615825     0.34790
C689        C  0.69425051  0.24238894  0.63329782    -0.26950
C690        C  0.73102021  0.27395851  0.62815383    -0.15020
C691        C  0.77834280  0.25694452  0.62770578     0.35610
C692        C  0.78689727  0.20922975  0.63076403    -0.26390
C693        C  0.75005002  0.17782650  0.63513351    -0.15630
C694        C  0.70311332  0.19468704  0.63784762     0.36700
N695        N  0.66454968  0.16360763  0.64563019    -0.89880
H696        H  0.65835810  0.25497924  0.63466449     0.17810
H697        H  0.82281228  0.19665634  0.62922974     0.17800
N698        N  0.81890165  0.28650299  0.62461751    -0.88910
H699        H  0.63256758  0.18173016  0.64581952     0.35180
H700        H  0.66950653  0.15074265  0.67195308     0.40280
H701        H  0.81996896  0.30992499  0.64651750     0.39900
H702        H  0.81798605  0.30442448  0.59987984     0.34790
C703        C  0.65057523  0.31956442  0.71892468    -0.26950
C704        C  0.66044320  0.36695673  0.72725189    -0.15020
C705        C  0.64034501  0.38644048  0.75888778     0.35610
C706        C  0.61040607  0.35882127  0.78047100    -0.26390
C707        C  0.59879638  0.31181268  0.77154594    -0.15630
C708        C  0.61937738  0.29213779  0.73987067     0.36700
N709        N  0.60810439  0.24574968  0.72692113    -0.89880
H710        H  0.66492182  0.30430692  0.69443086     0.17810
H711        H  0.59620888  0.37463412  0.80491769     0.17800
N712        N  0.64922294  0.43413539  0.76991788    -0.88910
H713        H  0.59452477  0.24920125  0.70064090     0.35180
H714        H  0.58116683  0.23060931  0.74197840     0.40280
H715        H  0.67284788  0.45065060  0.75245823     0.39900
H716        H  0.66570029  0.43298247  0.79531011     0.34790
C717        C  0.87981914  0.40679651  0.54189473    -0.26950
C718        C  0.83255354  0.39283691  0.54220624    -0.15020
C719        C  0.81838593  0.35366449  0.52133921     0.35610
C720        C  0.85149236  0.33024931  0.49964238    -0.26390
C721        C  0.89812975  0.34572547  0.49772291    -0.15630
C722        C  0.91265097  0.38435359  0.51924347     0.36700
N723        N  0.95999554  0.40182689  0.51865900    -0.89880
H724        H  0.89089297  0.43648605  0.55828282     0.17810
H725        H  0.84031220  0.30110093  0.48270428     0.17800
N726        N  0.77029096  0.33823289  0.52187108    -0.88910
H727        H  0.95907219  0.43571670  0.50774653     0.35180
H728        H  0.98149241  0.38160162  0.50179844     0.40280
H729        H  0.76291858  0.32632890  0.54808156     0.39900
H730        H  0.76552338  0.30950064  0.50450057     0.34790
C731        C  0.56371021  0.37151662  0.46123045    -0.26950
C732        C  0.57770120  0.32425208  0.45835998    -0.15020
C733        C  0.61548628  0.30791759  0.48002790     0.35610
C734        C  0.63547283  0.33765775  0.50579338    -0.26390
C735        C  0.61968960  0.38386466  0.51057959    -0.15630
C736        C  0.58417105  0.40168527  0.48727765     0.36700
N737        N  0.56590301  0.44859750  0.49067538    -0.89880
H738        H  0.53497068  0.38432439  0.44461560     0.17810
H739        H  0.66325186  0.32399600  0.52303187     0.17800
N740        N  0.63503069  0.26152617  0.47647983    -0.88910
H741        H  0.57330530  0.46628545  0.46648845     0.35180
H742        H  0.58257312  0.46718140  0.51144442     0.40280
H743        H  0.62260520  0.24420389  0.45344106     0.39900
H744        H  0.62503016  0.24211591  0.49927484     0.34790
C745        C  0.11490939  0.11517875  0.88617401    -0.26950
C746        C  0.07099367  0.09346457  0.88073628    -0.15020
C747        C  0.06983906  0.04794910  0.86494255     0.35610
C748        C  0.11221346  0.02520122  0.85626662    -0.26390
C749        C  0.15574060  0.04580997  0.86413779    -0.15630
C750        C  0.15710149  0.09203412  0.87814250     0.36700
N751        N  0.20059065  0.11600267  0.88541336    -0.89880
H752        H  0.11679937  0.15043329  0.89725186     0.17810
H753        H  0.11123637  0.98928625  0.84638946     0.17800
N754        N  0.02604924  0.02395418  0.85904945    -0.88910
H755        H  0.20085690  0.14661149  0.86973832     0.35180
H756        H  0.22932647  0.09624513  0.87657669     0.40280
H757        H  0.01200526  0.01615160  0.88456508     0.39900
H758        H  0.03151285  0.99169692  0.84605618     0.34790
C759        C  0.35783688  0.09713713  0.87436373    -0.26950
C760        C  0.38032029  0.05302401  0.87444845    -0.15020
C761        C  0.42744850  0.04990933  0.86244002     0.35610
C762        C  0.45142723  0.09123865  0.85291346    -0.26390
C763        C  0.42982853  0.13536371  0.85613259    -0.15630
C764        C  0.38219747  0.13819526  0.86556325     0.36700
N765        N  0.35938018  0.18310838  0.86765568    -0.89880
H766        H  0.32127506  0.10000684  0.88214205     0.17810
H767        H  0.48851156  0.08941208  0.84640559     0.17800
N768        N  0.45160182  0.00550616  0.86157843    -0.88910
H769        H  0.32431475  0.17938259  0.87554093     0.35180
H770        H  0.35898806  0.19729293  0.84147676     0.40280
H771        H  0.45557702  0.99424690  0.88843481     0.39900
H772        H  0.48551093  0.00945547  0.85116263     0.34790
C773        C  0.11951303  0.87229937  0.02068497    -0.26950
C774        C  0.08157278  0.84647575  0.00657544    -0.15020
C775        C  0.07556510  0.84455198  0.96835317     0.35610
C776        C  0.10782300  0.86827020  0.94575359    -0.26390
C777        C  0.14582686  0.89413030  0.96019106    -0.15630
C778        C  0.15116595  0.89624502  0.99839894     0.36700
N779        N  0.18853898  0.92293429  0.01480124    -0.89880
H780        H  0.12460050  0.87410401  0.04984048     0.17810
H781        H  0.10307577  0.86630439  0.91658417     0.17800
N782        N  0.03667366  0.82094004  0.95143166    -0.88910
H783        H  0.18852097  0.91925384  0.04306105     0.35180
H784        H  0.18196047  0.95843800  0.00952127     0.40280
H785        H  0.01317777  0.80761189  0.97046191     0.39900
H786        H  0.05012194  0.79240842  0.93682074     0.34790
C787        C  0.42906358  0.82877231  0.00523084    -0.26950
C788        C  0.40751924  0.82678157  0.03954092    -0.15020
C789        C  0.36994618  0.85813768  0.04710158     0.35610
C790        C  0.35142167  0.88596980  0.01877637    -0.26390
C791        C  0.37017005  0.88361577  0.98355676    -0.15630
C792        C  0.41124464  0.85699867  0.97743355     0.36700
N793        N  0.43418059  0.85787345  0.94262367    -0.89880
H794        H  0.45946151  0.80708164  0.99947763     0.17810
H795        H  0.32075888  0.90762588  0.02377172     0.17800
N796        N  0.35043401  0.86166375  0.08301445    -0.88910
H797        H  0.46364978  0.83589881  0.94246661     0.35180
H798        H  0.44647374  0.89205253  0.93847223     0.40280
H799        H  0.33273566  0.83044457  0.08859635     0.39900
H800        H  0.32510387  0.88827690  0.08409234     0.34790
C801        C  0.65505381  0.86978011  0.60700613    -0.26950
C802        C  0.65709860  0.90458907  0.63394592    -0.15020
C803        C  0.61688812  0.91338355  0.65544415     0.35610
C804        C  0.57477245  0.88930168  0.64766364    -0.26390
C805        C  0.57206297  0.85724062  0.61863727    -0.15630
C806        C  0.61296140  0.84764556  0.59800592     0.36700
N807        N  0.61137474  0.81711322  0.56677875    -0.89880
H808        H  0.68579351  0.86266959  0.59053145     0.17810
H809        H  0.54388168  0.89598573  0.66403582     0.17800
N810        N  0.61816562  0.94815577  0.68378659    -0.88910
H811        H  0.64457215  0.81346499  0.55498881     0.35180
H812        H  0.59002068  0.83326350  0.54729968     0.40280
H813        H  0.64116831  0.93593167  0.70383207     0.39900
H814        H  0.58525100  0.95137373  0.69610758     0.34790
C815        C  0.52909490  0.59354501  0.64924699    -0.26950
C816        C  0.55121382  0.63739180  0.64625292    -0.15020
C817        C  0.59923987  0.63952932  0.63770820     0.35610
C818        C  0.62332228  0.59784801  0.62957204    -0.26390
C819        C  0.60009710  0.55408001  0.62869813    -0.15630
C820        C  0.55285406  0.55172974  0.64040943     0.36700
N821        N  0.52822119  0.50767780  0.64126051    -0.89880
H822        H  0.49184447  0.59226645  0.65524168     0.17810
H823        H  0.66013021  0.60002736  0.62236530     0.17800
N824        N  0.62304947  0.68408626  0.63642094    -0.88910
H825        H  0.49284866  0.51286602  0.64775813     0.35180
H826        H  0.54244972  0.48791499  0.66252184     0.40280
H827        H  0.60985287  0.70311245  0.61440208     0.39900
H828        H  0.65885351  0.67924752  0.63131986     0.34790
C829        C  0.30276435  0.84034980  0.75095561    -0.26950
C830        C  0.32613254  0.87093929  0.77497800    -0.15020
C831        C  0.37627076  0.86761718  0.77671196     0.35610
C832        C  0.40087874  0.83727591  0.75297423    -0.26390
C833        C  0.37756737  0.80842016  0.72802252    -0.15630
C834        C  0.32784880  0.80948287  0.72768210     0.36700
N835        N  0.30246064  0.78082095  0.70251907    -0.89880
H836        H  0.26474512  0.84076445  0.74976625     0.17810
H837        H  0.43894317  0.83700617  0.75333840     0.17800
N838        N  0.40259847  0.89444134  0.80289944    -0.88910
H839        H  0.28129384  0.80308516  0.68700626     0.35180
H840        H  0.28025350  0.75884460  0.71735137     0.40280
H841        H  0.40231948  0.92944744  0.79433843     0.39900
H842        H  0.43786001  0.88410034  0.80320238     0.34790
C843        C  0.41460036  0.85888958  0.48053195    -0.26950
C844        C  0.39512230  0.83234155  0.50891165    -0.15020
C845        C  0.34630281  0.82421221  0.50968139     0.35610
C846        C  0.31730026  0.84707714  0.48486278    -0.26390
C847        C  0.33595536  0.87474190  0.45717750    -0.15630
C848        C  0.38510435  0.88000891  0.45416565     0.36700
N849        N  0.40448223  0.90833043  0.42563493    -0.89880
H850        H  0.45214652  0.86491854  0.47995895     0.17810
H851        H  0.27960026  0.84399638  0.48758026     0.17800
N852        N  0.32629040  0.79344922  0.53647842    -0.88910
H853        H  0.44113004  0.90886319  0.42741974     0.35180
H854        H  0.39306214  0.94288332  0.42972005     0.40280
H855        H  0.33971372  0.75974247  0.53184204     0.39900
H856        H  0.28988896  0.79099331  0.53315811     0.34790
C857        C  0.43421722  0.61371487  0.50976142    -0.26950
C858        C  0.41339056  0.61819905  0.54404927    -0.15020
C859        C  0.37273075  0.59162452  0.55193921     0.35610
C860        C  0.35099785  0.56532012  0.52394237    -0.26390
C861        C  0.36970632  0.56473491  0.48861874    -0.15630
C862        C  0.41317656  0.58712106  0.48228359     0.36700
N863        N  0.43565818  0.58395000  0.44754412    -0.89880
H864        H  0.46621264  0.63273930  0.50366773     0.17810
H865        H  0.31806319  0.54758002  0.52917922     0.17800
N866        N  0.35198657  0.59382755  0.58743184    -0.88910
H867        H  0.46909137  0.56950652  0.45135625     0.35180
H868        H  0.43974646  0.61799571  0.43738198     0.40280
H869        H  0.37547269  0.57807891  0.60557179     0.39900
H870        H  0.32126110  0.57378754  0.58826621     0.34790
C871        C  0.09662137  0.31121253  0.86314257    -0.26950
C872        C  0.04851097  0.31638483  0.85671789    -0.15020
C873        C  0.02855668  0.36179424  0.85639746     0.35610
C874        C  0.05666776  0.40090214  0.86488883    -0.26390
C875        C  0.10441302  0.39565176  0.87386170    -0.15630
C876        C  0.12485705  0.35002613  0.87126867     0.36700
N877        N  0.17392907  0.34145680  0.87696385    -0.89880
H878        H  0.11188989  0.27629276  0.86395865     0.17810
H879        H  0.04060672  0.43541567  0.86595061     0.17800
N880        N  0.97897017  0.36757797  0.85041262    -0.88910
H881        H  0.18250963  0.34883299  0.90397141     0.35180
H882        H  0.19326464  0.36300374  0.85955109     0.40280
H883        H  0.97187821  0.35734255  0.82367867     0.39900
H884        H  0.96938833  0.40296942  0.85249856     0.34790
C885        C  0.41118287  0.39755044  0.85464312    -0.26950
C886        C  0.40794981  0.35567441  0.87480523    -0.15020
C887        C  0.36273784  0.33847911  0.88403889     0.35610
C888        C  0.32293094  0.36519064  0.87558123    -0.26390
C889        C  0.32672650  0.40885671  0.85851254    -0.15630
C890        C  0.37111527  0.42457605  0.84666796     0.36700
N891        N  0.37588421  0.46921575  0.82877385    -0.89880
H892        H  0.44529274  0.41050395  0.84642220     0.17810
H893        H  0.28870608  0.35334679  0.88461894     0.17800
N894        N  0.35707243  0.29477498  0.90298702    -0.88910
H895        H  0.41067686  0.47468638  0.82080056     0.35180
H896        H  0.36825383  0.49549719  0.84774078     0.40280
H897        H  0.36703648  0.26830536  0.88496292     0.39900
H898        H  0.32176818  0.28858796  0.90910807     0.34790
C899        C  0.28561855  0.74257175  0.86177505    -0.26950
C900        C  0.24874348  0.77463343  0.86212057    -0.15020
C901        C  0.20150260  0.75816505  0.85885377     0.35610
C902        C  0.19258645  0.71036146  0.85964362    -0.26390
C903        C  0.22937101  0.67844243  0.86242286    -0.15630
C904        C  0.27666316  0.69458486  0.86074830     0.36700
N905        N  0.31552646  0.66245902  0.85767476    -0.89880
H906        H  0.32162234  0.75486241  0.86245518     0.17810
H907        H  0.15650026  0.69828401  0.85885520     0.17800
N908        N  0.16162522  0.78847437  0.85431039    -0.89610
H909        H  0.34760417  0.68031924  0.85754157     0.35180
H910        H  0.31271024  0.64571117  0.83245740     0.40280
H911        H  0.16743399  0.81082086  0.83225399     0.39900
H912        H  0.15588024  0.80770859  0.87808883     0.34790
C913        C  0.07273058  0.58710093  0.98011284    -0.26950
C914        C  0.11764672  0.56804507  0.98513138    -0.15020
C915        C  0.14118943  0.57583376  0.01844653     0.35610
C916        C  0.12027743  0.60508306  0.04497015    -0.26390
C917        C  0.07641057  0.62667916  0.03884773    -0.15630
C918        C  0.05192754  0.61591784  0.00635405     0.36700
N919        N  0.00617294  0.63490565  0.99924171    -0.89880
H920        H  0.05401821  0.58082012  0.95488996     0.17810
H921        H  0.13932121  0.61261992  0.06978347     0.17800
N922        N  0.18737149  0.55679322  0.02429549    -0.88910
H923        H  0.98301405  0.60693661  0.99501357     0.35180
H924        H  0.00781089  0.65450908  0.97527088     0.40280
H925        H  0.18405752  0.52029554  0.02613582     0.39900
H926        H  0.20087396  0.56809293  0.04925791     0.34790
C927        C  0.41030928  0.60384906  0.97303615    -0.26950
C928        C  0.40185521  0.59896862  0.01043581    -0.15020
C929        C  0.36366829  0.57074140  0.02160734     0.35610
C930        C  0.33400312  0.55006327  0.99596786    -0.26390
C931        C  0.34117632  0.55556939  0.95857736    -0.15630
C932        C  0.38095048  0.58164242  0.94693691     0.36700
N933        N  0.39160578  0.58556671  0.90895793    -0.89880
H934        H  0.44002865  0.62458806  0.96419237     0.17810
H935        H  0.30453247  0.52970103  0.00583616     0.17800
N936        N  0.35362749  0.56378032  0.05931073    -0.88910
H937        H  0.42268117  0.60445054  0.90516015     0.35180
H938        H  0.36489364  0.60537003  0.89703579     0.40280
H939        H  0.35501773  0.52772475  0.06463086     0.39900
H940        H  0.31923548  0.57504944  0.06395466     0.34790
C941        C  0.94810358  0.85651696  0.64646877    -0.26950
C942        C  0.92452334  0.81337358  0.64371987    -0.15020
C943        C  0.87659577  0.81257923  0.63478083     0.35610
C944        C  0.85378285  0.85494577  0.62665363    -0.26390
C945        C  0.87823496  0.89806075  0.62614735    -0.15630
C946        C  0.92564244  0.89899580  0.63763532     0.36700
N947        N  0.95165961  0.94225850  0.63836684    -0.89880
H948        H  0.98534639  0.85668494  0.65266693     0.17810
H949        H  0.81689306  0.85387847  0.61945045     0.17800
N950        N  0.85152303  0.76873213  0.63340476    -0.88910
H951        H  0.98699471  0.93594071  0.64445143     0.35180
H952        H  0.93856982  0.96241800  0.65986529     0.40280
H953        H  0.86452768  0.74912384  0.61159648     0.39900
H954        H  0.81595019  0.77454054  0.62789020     0.34790
C955        C  0.86666127  0.51963839  0.64450186    -0.26950
C956        C  0.82341885  0.54263341  0.63991391    -0.15020
C957        C  0.82252981  0.59063458  0.63115633     0.35610
C958        C  0.86507423  0.61415157  0.62524579    -0.26390
C959        C  0.90859377  0.59037204  0.62677710    -0.15630
C960        C  0.90937031  0.54282363  0.63793102     0.36700
N961        N  0.95291185  0.51740851  0.64064158    -0.89880
H962        H  0.86698723  0.48237249  0.65059982     0.17810
H963        H  0.86393615  0.65106824  0.61815136     0.17800
N964        N  0.77848821  0.61516285  0.62792534    -0.88910
H965        H  0.94674490  0.48194254  0.64627102     0.35180
H966        H  0.97105897  0.53074217  0.66310557     0.40280
H967        H  0.76087623  0.60209423  0.60513801     0.39900
H968        H  0.78412925  0.65088291  0.62295993     0.34790
C969        C  0.20501013  0.76264970  0.62211526    -0.26950
C970        C  0.19113557  0.71485954  0.62268535    -0.15020
C971        C  0.22449018  0.67957084  0.61650825     0.35610
C972        C  0.27102854  0.69280309  0.61166548    -0.26390
C973        C  0.28540722  0.74024732  0.61491557    -0.15630
C974        C  0.25163664  0.77575942  0.61775963     0.36700
N975        N  0.26467857  0.82460421  0.61799701    -0.89880
H976        H  0.17965887  0.79043559  0.62624637     0.17810
H977        H  0.29654573  0.66509726  0.60778701     0.17800
N978        N  0.21161612  0.63069744  0.61590129    -0.88910
H979        H  0.23527204  0.84608761  0.62179107     0.35180
H980        H  0.27798479  0.83274397  0.59235327     0.40280
H981        H  0.20306643  0.62109976  0.64247639     0.39900
H982        H  0.24023140  0.60971805  0.60850183     0.34790
C983        C  0.14641536  0.64461721  0.72725650    -0.26950
C984        C  0.09720558  0.64541744  0.73162395    -0.15020
C985        C  0.07722977  0.61537370  0.75785330     0.35610
C986        C  0.10627231  0.58504614  0.77800621    -0.26390
C987        C  0.15560856  0.58277022  0.77324388    -0.15630
C988        C  0.17570741  0.61320414  0.74681707     0.36700
N989        N  0.22481627  0.61222056  0.73767468    -0.89880
H990        H  0.16211270  0.66627201  0.70635782     0.17810
H991        H  0.08942391  0.56324907  0.79824792     0.17800
N992        N  0.02750994  0.61446469  0.76482510    -0.88910
H993        H  0.22731978  0.60625619  0.70970308     0.35180
H994        H  0.24173771  0.58352465  0.74932759     0.40280
H995        H  0.00971912  0.63986898  0.74968447     0.39900
H996        H  0.02253636  0.62379303  0.79204110     0.34790
C997        C  0.06581842  0.58621360  0.48666528    -0.26950
C998        C  0.08647395  0.61267079  0.51470270    -0.15020
C999        C  0.13554433  0.61964250  0.51483998     0.35610
C1000       C  0.16336746  0.59694101  0.48900238    -0.26390
C1001       C  0.14352386  0.56795290  0.46229985    -0.15630
C1002       C  0.09408653  0.56364310  0.46022724     0.36700
N1003       N  0.07299704  0.53523473  0.43232498    -0.89880
H1004       H  0.02809969  0.58129016  0.48645605     0.17810
H1005       H  0.20113356  0.60167001  0.48992151     0.17800
N1006       N  0.15705432  0.64934604  0.54181320    -0.88910
H1007       H  0.03640333  0.53584994  0.43461626     0.35180
H1008       H  0.08347696  0.50044670  0.43663092     0.40280
H1009       H  0.14462685  0.68353852  0.53775929     0.39900
H1010       H  0.19347053  0.65059070  0.53829925     0.34790
C1011       C  0.04883818  0.83251951  0.51144774    -0.26950
C1012       C  0.06702003  0.82815132  0.54658553    -0.15020
C1013       C  0.10647793  0.85544032  0.55662074     0.35610
C1014       C  0.12862306  0.88407485  0.53040257    -0.26390
C1015       C  0.11128731  0.88712602  0.49470583    -0.15630
C1016       C  0.07011009  0.86143403  0.48548659     0.36700
N1017       N  0.05070635  0.86307671  0.44938171    -0.89880
H1018       H  0.01838795  0.81191794  0.50377335     0.17810
H1019       H  0.15974869  0.90376310  0.53780203     0.17800
N1020       N  0.12519436  0.85252303  0.59278864    -0.88910
H1021       H  0.01911348  0.84446921  0.44791479     0.35180
H1022       H  0.07409703  0.84559796  0.43216647     0.40280
H1023       H  0.10043826  0.86732564  0.61036683     0.39900
H1024       H  0.15544723  0.87307886  0.59519817     0.34790
loop_ 
_geom_bond_atom_site_label_1 
_geom_bond_atom_site_label_2 
_geom_bond_distance 
_geom_bond_site_symmetry_2 
_ccdc_geom_bond_type 
Fe1          O17   2.042       .  S
Fe1           O7   2.080       .  S
Fe1          O14   2.099   1_655  S
Fe1           O6   2.051   1_655  S
Fe1          O12   1.933   1_655  S
Fe2           O5   2.034       .  S
Fe2           O9   2.091   1_455  S
Fe2          O13   2.028       .  S
Fe2          O18   2.110       .  S
Fe2          O12   1.931       .  S
Fe3          O21   2.131       .  S
Fe3           O8   1.961       .  S
Fe3          O15   2.043   1_455  S
Fe3           O4   2.101       .  S
Fe3          O12   1.952       .  S
O4           C11   1.273       .  A
O5           C19   1.255       .  A
O6           C11   1.268       .  A
O7           C10   1.277       .  A
O8           C20   1.257       .  A
O9           C22   1.278       .  A
C10          O15   1.274       .  A
C10         C942   1.462       .  S
C11        C1012   1.486       .  S
O13          C16   1.261       .  A
O14          C16   1.271       .  A
C16         C998   1.478       .  S
O17          C22   1.271       .  A
O18          C20   1.284       .  A
C19          O21   1.274       .  A
C19         C984   1.495       .  S
C20         C970   1.464       .  S
C22         C959   1.489       .  S
Fe23         O39   2.050       .  S
Fe23         O29   2.076       .  S
Fe23         O36   2.093       .  S
Fe23         O28   2.053       .  S
Fe23         O34   1.914       .  S
Fe24         O27   2.028       .  S
Fe24         O31   2.089       .  S
Fe24         O35   2.044       .  S
Fe24         O40   2.124       .  S
Fe24         O34   1.927       .  S
Fe25         O43   2.154       .  S
Fe25         O30   1.975       .  S
Fe25         O37   2.047       .  S
Fe25         O26   2.108       .  S
Fe25         O34   1.945       .  S
O26          C33   1.273       .  A
O27          C41   1.254       .  A
O28          C33   1.269       .  A
O29          C32   1.279       .  A
O30          C42   1.253       .  A
O31          C44   1.277       .  A
C32          O37   1.275       .  A
C32         C889   1.468       .  S
C33         C931   1.499       .  S
O35          C38   1.267       .  A
O36          C38   1.273       .  A
C38         C914   1.484       .  S
O39          C44   1.268       .  A
O40          C42   1.285       .  A
C41          O43   1.277       .  A
C41         C987   1.517       .  S
C42         C903   1.462       .  S
C44         C875   1.492       .  S
Fe45         O61   2.023       .  S
Fe45         O51   2.077       .  S
Fe45         O58   2.090       .  S
Fe45         O50   2.038       .  S
Fe45         O56   1.931       .  S
Fe46         O49   2.043       .  S
Fe46         O53   2.101       .  S
Fe46         O57   2.028       .  S
Fe46         O62   2.112       .  S
Fe46         O56   1.938       .  S
Fe47         O65   2.138       .  S
Fe47         O52   1.965       .  S
Fe47         O59   2.049       .  S
Fe47         O48   2.105       .  S
Fe47         O56   1.951       .  S
O48          C55   1.272       .  A
O49          C63   1.258       .  A
O50          C55   1.264       .  A
O51          C54   1.278       .  A
O52          C64   1.258       .  A
O53          C66   1.280       .  A
C54          O59   1.276       .  A
C54         C816   1.463       .  S
C55         C858   1.483       .  S
O57          C60   1.261       .  A
O58          C60   1.268       .  A
C60         C844   1.473       .  S
O61          C66   1.266       .  A
O62          C64   1.285       .  A
C63          O65   1.275       .  A
C63         C833   1.502       .  S
C64         C973   1.465       .  S
C66         C805   1.483       .  S
Fe67         O83   2.040   1_565  S
Fe67         O73   2.082   1_565  S
Fe67         O80   2.096       .  S
Fe67         O72   2.046       .  S
Fe67         O78   1.915       .  S
Fe68         O71   2.013       .  S
Fe68         O75   2.082       .  S
Fe68         O79   2.030       .  S
Fe68         O84   2.121       .  S
Fe68         O78   1.918       .  S
Fe69         O87   2.170       .  S
Fe69         O74   1.968       .  S
Fe69         O81   2.051       .  S
Fe69         O70   2.114       .  S
Fe69         O78   1.946       .  S
O70          C77   1.279       .  A
O71          C85   1.247       .  A
O72          C77   1.269       .  A
O73          C76   1.277       .  A
O74          C86   1.250       .  A
O75          C88   1.275   1_565  A
C76          O81   1.276   1_545  A
C76         C749   1.470       .  S
C77         C777   1.497       .  S
O79          C82   1.265       .  A
O80          C82   1.273       .  A
C82         C791   1.480       .  S
O83          C88   1.270       .  A
O84          C86   1.285       .  A
C85          O87   1.280       .  A
C85         C830   1.518       .  S
C86         C900   1.461       .  S
C88         C760   1.485       .  S
Fe89        O105   2.039       .  S
Fe89         O95   2.089       .  S
Fe89        O102   2.097       .  S
Fe89         O94   2.060       .  S
Fe89        O100   1.926       .  S
Fe90         O93   2.036       .  S
Fe90         O97   2.094       .  S
Fe90        O101   2.036       .  S
Fe90        O106   2.112       .  S
Fe90        O100   1.924       .  S
Fe91        O109   2.136       .  S
Fe91         O96   1.975       .  S
Fe91        O103   2.043       .  S
Fe91         O92   2.096       .  S
Fe91        O100   1.941       .  S
O92          C99   1.271       .  A
O93         C107   1.256       .  A
O94          C99   1.268       .  A
O95          C98   1.279       .  A
O96         C108   1.252       .  A
O97         C110   1.280       .  A
C98         O103   1.274       .  A
C98         C956   1.466       .  S
C99         C718   1.476       .  S
O101        C104   1.262       .  A
O102        C104   1.271       .  A
C104        C735   1.477       .  S
O105        C110   1.272       .  A
O106        C108   1.285       .  A
C107        O109   1.276       .  A
C107        C704   1.494       .  S
C108        C690   1.467       .  S
C110        C819   1.488       .  S
Fe111       O127   2.046       .  S
Fe111       O117   2.080       .  S
Fe111       O124   2.091       .  S
Fe111       O116   2.056       .  S
Fe111       O122   1.930       .  S
Fe112       O115   2.027       .  S
Fe112       O119   2.079       .  S
Fe112       O123   2.035       .  S
Fe112       O128   2.109       .  S
Fe112       O122   1.936       .  S
Fe113       O131   2.138       .  S
Fe113       O118   1.974       .  S
Fe113       O125   2.049       .  S
Fe113       O114   2.099       .  S
Fe113       O122   1.955       .  S
O114        C121   1.273       .  A
O115        C129   1.253       .  A
O116        C121   1.267       .  A
O117        C120   1.277       .  A
O118        C130   1.259       .  A
O119        C132   1.275       .  A
C120        O125   1.275       .  A
C120        C763   1.464       .  S
C121        C662   1.482       .  S
O123        C126   1.265       .  A
O124        C126   1.271       .  A
C126        C648   1.486       .  S
O127        C132   1.269       .  A
O128        C130   1.282       .  A
C129        O131   1.274       .  A
C129        C707   1.507       .  S
C130        C676   1.438       .  S
C132        C886   1.491       .  S
Fe133       O149   2.035       .  S
Fe133       O139   2.071       .  S
Fe133       O146   2.101   1_565  S
Fe133       O138   2.037   1_565  S
Fe133       O144   1.917   1_565  S
Fe134       O137   2.021       .  S
Fe134       O141   2.089   1_545  S
Fe134       O145   2.033       .  S
Fe134       O150   2.115       .  S
Fe134       O144   1.922       .  S
Fe135       O153   2.147       .  S
Fe135       O140   1.971       .  S
Fe135       O147   2.051   1_545  S
Fe135       O136   2.110       .  S
Fe135       O144   1.951       .  S
O136        C143   1.275       .  A
O137        C151   1.253       .  A
O138        C143   1.269       .  A
O139        C142   1.278       .  A
O140        C152   1.254       .  A
O141        C154   1.277       .  A
C142        O147   1.274       .  A
C142        C802   1.480       .  S
C143        C634   1.488       .  S
O145        C148   1.263       .  A
O146        C148   1.273       .  A
C148        C620   1.481       .  S
O149        C154   1.269       .  A
O150        C152   1.284       .  A
C151        O153   1.277       .  A
C151        C609   1.503       .  S
C152        C693   1.460       .  S
C154        C945   1.486       .  S
Fe155       O171   2.062   1_655  S
Fe155       O161   2.080   1_655  S
Fe155       O168   2.098       .  S
Fe155       O160   2.062       .  S
Fe155       O166   1.937       .  S
Fe156       O159   2.024       .  S
Fe156       O163   2.072       .  S
Fe156       O167   2.021       .  S
Fe156       O172   2.102       .  S
Fe156       O166   1.936       .  S
Fe157       O175   2.140       .  S
Fe157       O162   1.984       .  S
Fe157       O169   2.058       .  S
Fe157       O158   2.088       .  S
Fe157       O166   1.957       .  S
O158        C165   1.270       .  A
O159        C173   1.253       .  A
O160        C165   1.269       .  A
O161        C164   1.277       .  A
O162        C174   1.260       .  A
O163        C176   1.273   1_655  A
C164        O169   1.278   1_455  A
C164        C872   1.469       .  S
C165        C581   1.476       .  S
O167        C170   1.261       .  A
O168        C170   1.272       .  A
C170        C592   1.476       .  S
O171        C176   1.273       .  A
O172        C174   1.280       .  A
C173        O175   1.275       .  A
C173        C606   1.509       .  S
C174        C679   1.444       .  S
C176        C746   1.493       .  S
Fe177       O193   2.098       .  S
Fe177       O183   2.038       .  S
Fe177       O190   2.095       .  S
Fe177       O182   2.073       .  S
Fe177       O188   1.931       .  S
Fe178       O181   2.111       .  S
Fe178       O185   2.038       .  S
Fe178       O189   2.089       .  S
Fe178       O194   2.026       .  S
Fe178       O188   1.946       .  S
Fe179       O197   2.054       .  S
Fe179       O184   2.123       .  S
Fe179       O191   2.093       .  S
Fe179       O180   2.094       .  S
Fe179       O188   1.950       .  S
O180        C187   1.279       .  A
O181        C195   1.285       .  A
O182        C187   1.276       .  A
O183        C186   1.264       .  A
O184        C196   1.283       .  A
O185        C198   1.249       .  A
C186        O191   1.275       .  A
C186        C651   1.496       .  S
C187        C539   1.504       .  S
O189        C192   1.285       .  A
O190        C192   1.284       .  A
C192        C522   1.503       .  S
O193        C198   1.263       .  A
O194        C196   1.257       .  A
C195        O197   1.272       .  A
C195        C550   1.482       .  S
C196        C564   1.494       .  S
C198        C578   1.488   1_554  S
Fe199       O215   2.077       .  S
Fe199       O205   2.053       .  S
Fe199       O212   2.093   1_655  S
Fe199       O204   2.052   1_655  S
Fe199       O210   1.926       .  S
Fe200       O203   2.071       .  S
Fe200       O207   2.054       .  S
Fe200       O211   2.063       .  S
Fe200       O216   2.029       .  S
Fe200       O210   1.945       .  S
Fe201       O219   2.036       .  S
Fe201       O206   2.115       .  S
Fe201       O213   2.077       .  S
Fe201       O202   2.082       .  S
Fe201       O210   1.953       .  S
O202        C209   1.276   1_655  A
O203        C217   1.282       .  A
O204        C209   1.272       .  A
O205        C208   1.268       .  A
O206        C218   1.280       .  A
O207        C220   1.252       .  A
C208        O213   1.270       .  A
C208        C623   1.471       .  S
C209        C483   1.489       .  S
O211        C214   1.280   1_655  A
O212        C214   1.284       .  A
C214        C494   1.485       .  S
O215        C220   1.258       .  A
O216        C218   1.256       .  A
C217        O219   1.271       .  A
C217        C508   1.456       .  S
C218        C567   1.484       .  S
C220        C721   1.470       .  S
Fe221       O237   2.102   1_565  S
Fe221       O227   2.049   1_565  S
Fe221       O234   2.116       .  S
Fe221       O226   2.073       .  S
Fe221       O232   1.930   1_565  S
Fe222       O225   2.101       .  S
Fe222       O229   2.042       .  S
Fe222       O233   2.089   1_545  S
Fe222       O238   2.037       .  S
Fe222       O232   1.943       .  S
Fe223       O241   2.067       .  S
Fe223       O228   2.116       .  S
Fe223       O235   2.071       .  S
Fe223       O224   2.099   1_545  S
Fe223       O232   1.956       .  S
O224        C231   1.282       .  A
O225        C239   1.286       .  A
O226        C231   1.276       .  A
O227        C230   1.268       .  A
O228        C240   1.279       .  A
O229        C242   1.249       .  A
C230        O235   1.268       .  A
C230        C595   1.466       .  S
C231        C438   1.503       .  S
O233        C236   1.289       .  A
O234        C236   1.289       .  A
C236        C452   1.504       .  S
O237        C242   1.260       .  A
O238        C240   1.258       .  A
C239        O241   1.276       .  A
C239        C553   1.486       .  S
C240        C469   1.493       .  S
C242        C665   1.498       .  S
Fe243       O259   2.113       .  S
Fe243       O249   2.039       .  S
Fe243       O256   2.046       .  S
Fe243       O248   2.099       .  S
Fe243       O254   1.936       .  S
Fe244       O247   2.146       .  S
Fe244       O251   2.013       .  S
Fe244       O255   2.111       .  S
Fe244       O260   2.017       .  S
Fe244       O254   1.930       .  S
Fe245       O263   1.958       .  S
Fe245       O250   2.143       .  S
Fe245       O257   2.110       .  S
Fe245       O246   2.043       .  S
Fe245       O254   1.963       .  S
O246        C253   1.274       .  A
O247        C261   1.291       .  A
O248        C253   1.281       .  A
O249        C252   1.265       .  A
O250        C262   1.275       .  A
O251        C264   1.257       .  A
C252        O257   1.274       .  A
C252        C732   1.479       .  S
C253        C424   1.471       .  S
O255        C258   1.284       .  A
O256        C258   1.269       .  A
C258        C410   1.500       .  S
O259        C264   1.273       .  A
O260        C262   1.249       .  A
C261        O263   1.251       .  A
C261        C511   1.482       .  S
C262        C466   1.505       .  S
C264        C637   1.486       .  S
Fe265       O281   2.116       .  S
Fe265       O271   2.039       .  S
Fe265       O278   2.108       .  S
Fe265       O270   2.090       .  S
Fe265       O276   1.943       .  S
Fe266       O269   2.104       .  S
Fe266       O273   2.035       .  S
Fe266       O277   2.088       .  S
Fe266       O282   2.014       .  S
Fe266       O276   1.954       .  S
Fe267       O285   2.049       .  S
Fe267       O272   2.123       .  S
Fe267       O279   2.080       .  S
Fe267       O268   2.083       .  S
Fe267       O276   1.965       .  S
O268        C275   1.281       .  A
O269        C283   1.285       .  A
O270        C275   1.281       .  A
O271        C274   1.266       .  A
O272        C284   1.278       .  A
O273        C286   1.247       .  A
C274        O279   1.268       .  A
C274        C788   1.490       .  S
C275        C455   1.497       .  S
O277        C280   1.285       .  A
O278        C280   1.285       .  A
C280        C536   1.505       .  S
O281        C286   1.264       .  A
O282        C284   1.253       .  A
C283        O285   1.274       .  A
C283        C382   1.474       .  S
C284        C399   1.491       .  S
C286        C928   1.494       .  S
Fe287       O303   2.104       .  S
Fe287       O293   2.041       .  S
Fe287       O300   2.037       .  S
Fe287       O292   2.090       .  S
Fe287       O298   1.925       .  S
Fe288       O291   2.147       .  S
Fe288       O295   2.031       .  S
Fe288       O299   2.112       .  S
Fe288       O304   2.016       .  S
Fe288       O298   1.923       .  S
Fe289       O307   1.975       .  S
Fe289       O294   2.157       .  S
Fe289       O301   2.108       .  S
Fe289       O290   2.053       .  S
Fe289       O298   1.956       .  S
O290        C297   1.276       .  A
O291        C305   1.290       .  A
O292        C297   1.278       .  A
O293        C296   1.269       .  A
O294        C306   1.277       .  A
O295        C308   1.262       .  A
C296        O301   1.275       .  A
C296       C1001   1.481       .  S
C297        C497   1.475       .  S
O299        C302   1.283       .  A
O300        C302   1.269       .  A
C302        C427   1.495       .  S
O303        C308   1.274       .  A
O304        C306   1.249       .  A
C305        O307   1.257       .  A
C305        C368   1.459       .  S
C306        C396   1.510       .  S
C308        C861   1.487       .  S
Fe309       O325   2.113   1_655  S
Fe309       O315   2.049   1_655  S
Fe309       O322   2.114       .  S
Fe309       O314   2.080       .  S
Fe309       O320   1.929   1_655  S
Fe310       O313   2.124       .  S
Fe310       O317   2.035       .  S
Fe310       O321   2.089   1_455  S
Fe310       O326   2.035       .  S
Fe310       O320   1.941       .  S
Fe311       O329   2.037       .  S
Fe311       O316   2.109       .  S
Fe311       O323   2.093       .  S
Fe311       O312   2.077   1_455  S
Fe311       O320   1.943       .  S
O312        C319   1.276       .  A
O313        C327   1.286       .  A
O314        C319   1.278       .  A
O315        C318   1.269       .  A
O316        C328   1.281       .  A
O317        C330   1.247       .  A
C318        O323   1.276       .  A
C318        C917   1.494       .  S
C319        C525   1.499       .  S
O321        C324   1.287       .  A
O322        C324   1.290       .  A
C324        C441   1.505       .  S
O325        C330   1.262       .  A
O326        C328   1.259       .  A
C327        O329   1.266       .  A
C327        C385   1.489       .  S
C328        C357   1.478       .  S
C330        C774   1.491       .  S
Fe331       O347   2.105       .  S
Fe331       O337   2.041       .  S
Fe331       O344   2.099   1_565  S
Fe331       O336   2.076   1_565  S
Fe331       O342   1.933       .  S
Fe332       O335   2.087       .  S
Fe332       O339   2.038       .  S
Fe332       O343   2.065       .  S
Fe332       O348   2.004       .  S
Fe332       O342   1.949       .  S
Fe333       O351   2.033       .  S
Fe333       O338   2.114       .  S
Fe333       O345   2.086       .  S
Fe333       O334   2.070       .  S
Fe333       O342   1.955       .  S
O334        C341   1.277   1_565  A
O335        C349   1.285       .  A
O336        C341   1.278       .  A
O337        C340   1.265       .  A
O338        C350   1.277       .  A
O339        C352   1.246       .  A
C340        O345   1.269       .  A
C340        C847   1.470       .  S
C341        C413   1.484       .  S
O343        C346   1.280   1_565  A
O344        C346   1.286       .  A
C346        C480   1.485       .  S
O347        C352   1.262       .  A
O348        C350   1.250       .  A
C349        O351   1.272       .  A
C349        C371   1.451       .  S
C350        C354   1.485       .  S
C352       C1015   1.494       .  S
C353        C354   1.403       .  A
C353        C358   1.415       .  A
C353        H360   1.084       .  S
C354        C355   1.416       .  A
C355        C356   1.405       .  A
C355        N362   1.433       .  S
C356        C357   1.400       .  A
C356        H361   1.084       .  S
C357        C358   1.419       .  A
C358        N359   1.437       .  S
N359        H363   1.045       .  S
N359        H364   1.044       .  S
N362        H365   1.046       .  S
N362        H366   1.046       .  S
C367        C368   1.400       .  A
C367        C372   1.403       .  A
C367        H374   1.084       .  S
C368        C369   1.424       .  A
C369        C370   1.389       .  A
C369        N376   1.438       .  S
C370        C371   1.392       .  A
C370        H375   1.086       .  S
C371        C372   1.414       .  A
C372        N373   1.435       .  S
N373        H377   1.046       .  S
N373        H378   1.045       .  S
N376        H379   1.039       .  S
N376        H380   1.046       .  S
C381        C382   1.412       .  A
C381        C386   1.412       .  A
C381        H388   1.082       .  S
C382        C383   1.399       .  A
C383        C384   1.400       .  A
C383        N390   1.437       .  S
C384        C385   1.416       .  A
C384        H389   1.083       .  S
C385        C386   1.406       .  A
C386        N387   1.437       .  S
N387        H391   1.046       .  S
N387        H392   1.045       .  S
N390        H393   1.043       .  S
N390        H394   1.046       .  S
C395        C396   1.411       .  A
C395        C400   1.422       .  A
C395        H402   1.077       .  S
C396        C397   1.418       .  A
C397        C398   1.406       .  A
C397        N404   1.433       .  S
C398        C399   1.404       .  A
C398        H403   1.085       .  S
C399        C400   1.414       .  A
C400        N401   1.437       .  S
N401        H405   1.045       .  S
N401        H406   1.046       .  S
N404        H407   1.046       .  S
N404        H408   1.046       .  S
C409        C410   1.407       .  A
C409        C414   1.411       .  A
C409        H416   1.083       .  S
C410        C411   1.428       .  A
C411        C412   1.399       .  A
C411        N418   1.433       .  S
C412        C413   1.398       .  A
C412        H417   1.084       .  S
C413        C414   1.416       .  A
C414        N415   1.438   1_545  S
N415        H419   1.046       .  S
N415        H420   1.045       .  S
N418        H421   1.046       .  S
N418        H422   1.044       .  S
C423        C424   1.394       .  A
C423        C428   1.404       .  A
C423        H430   1.084       .  S
C424        C425   1.411       .  A
C425        C426   1.406       .  A
C425        N432   1.432       .  S
C426        C427   1.405       .  A
C426        H431   1.083       .  S
C427        C428   1.424       .  A
C428        N429   1.436       .  S
N429        H433   1.046       .  S
N429        H434   1.046       .  S
N432        H435   1.046       .  S
N432        H436   1.045       .  S
C437        C438   1.410       .  A
C437        C442   1.418       .  A
C437        H444   1.083       .  S
C438        C439   1.414       .  A
C439        C440   1.409       .  A
C439        N446   1.436       .  S
C440        C441   1.408       .  A
C440        H445   1.084       .  S
C441        C442   1.417       .  A
C442        N443   1.437       .  S
N443        H447   1.046       .  S
N443        H448   1.046       .  S
N446        H449   1.045       .  S
N446        H450   1.046       .  S
C451        C452   1.405       .  A
C451        C456   1.415       .  A
C451        H458   1.083       .  S
C452        C453   1.422       .  A
C453        C454   1.406       .  A
C453        N460   1.431       .  S
C454        C455   1.403       .  A
C454        H459   1.084       .  S
C455        C456   1.420       .  A
C456        N457   1.438       .  S
N457        H461   1.046       .  S
N457        H462   1.045       .  S
N460        H463   1.045       .  S
N460        H464   1.044       .  S
C465        C466   1.400       .  A
C465        C470   1.411       .  A
C465        H472   1.084       .  S
C466        C467   1.430       .  A
C467        C468   1.415       .  A
C467        N474   1.438       .  S
C468        C469   1.396       .  A
C468        H473   1.083       .  S
C469        C470   1.420       .  A
C470        N471   1.433       .  S
N471        H475   1.045       .  S
N471        H476   1.046       .  S
N474        H477   1.045       .  S
N474        H478   1.046       .  S
C479        C480   1.409       .  A
C479        C484   1.412       .  A
C479        H486   1.084       .  S
C480        C481   1.409       .  A
C481        C482   1.397       .  A
C481        N488   1.440       .  S
C482        C483   1.408       .  A
C482        H487   1.084       .  S
C483        C484   1.419       .  A
C484        N485   1.438       .  S
N485        H489   1.046       .  S
N485        H490   1.043       .  S
N488        H491   1.046       .  S
N488        H492   1.046       .  S
C493        C494   1.406       .  A
C493        C498   1.401       .  A
C493        H500   1.084       .  S
C494        C495   1.413       .  A
C495        C496   1.409       .  A
C495        N502   1.437       .  S
C496        C497   1.406       .  A
C496        H501   1.084       .  S
C497        C498   1.408       .  A
C498        N499   1.437       .  S
N499        H503   1.046       .  S
N499        H504   1.044       .  S
N502        H505   1.045       .  S
N502        H506   1.046       .  S
C507        C508   1.383       .  A
C507        C512   1.384       .  A
C507        H514   1.085       .  S
C508        C509   1.413       .  A
C509        C510   1.399       .  A
C509        N516   1.432       .  S
C510        C511   1.399       .  A
C510        H515   1.083       .  S
C511        C512   1.440       .  A
C512        N513   1.434       .  S
N513        H517   1.042       .  S
N513        H518   1.045       .  S
N516        H519   1.046       .  S
N516        H520   1.046       .  S
C521        C522   1.411       .  A
C521        C526   1.405       .  A
C521        H528   1.084       .  S
C522        C523   1.415       .  A
C523        C524   1.415       .  A
C523        N530   1.437       .  S
C524        C525   1.412       .  A
C524        H529   1.083       .  S
C525        C526   1.409       .  A
C526        N527   1.433       .  S
N527        H531   1.046       .  S
N527        H532   1.046       .  S
N530        H533   1.045       .  S
N530        H534   1.046       .  S
C535        C536   1.407       .  A
C535        C540   1.416       .  A
C535        H542   1.083       .  S
C536        C537   1.420       .  A
C537        C538   1.411       .  A
C537        N544   1.438       .  S
C538        C539   1.407       .  A
C538        H543   1.084       .  S
C539        C540   1.420       .  A
C540        N541   1.438       .  S
N541        H545   1.046       .  S
N541        H546   1.045       .  S
N544        H547   1.045       .  S
N544        H548   1.046       .  S
C549        C550   1.409       .  A
C549        C554   1.401       .  A
C549        H556   1.080       .  S
C550        C551   1.402       .  A
C551        C552   1.409       .  A
C551        N558   1.436       .  S
C552        C553   1.416       .  A
C552        H557   1.083       .  S
C553        C554   1.413       .  A
C554        N555   1.438       .  S
N555        H559   1.046       .  S
N555        H560   1.040       .  S
N558        H561   1.046       .  S
N558        H562   1.046       .  S
C563        C564   1.401       .  A
C563        C568   1.416       .  A
C563        H570   1.083       .  S
C564        C565   1.421       .  A
C565        C566   1.407       .  A
C565        N572   1.433       .  S
C566        C567   1.397       .  A
C566        H571   1.084       .  S
C567        C568   1.422       .  A
C568        N569   1.438       .  S
N569        H573   1.046       .  S
N569        H574   1.044       .  S
N572        H575   1.046       .  S
N572        H576   1.046       .  S
C577        C578   1.409       .  A
C577        C582   1.401       .  A
C577        H584   1.084   1_556  S
C578        C579   1.409       .  A
C579        C580   1.408       .  A
C579        N586   1.431       .  S
C580        C581   1.406       .  A
C580        H585   1.083       .  S
C581        C582   1.413       .  A
C582        N583   1.440       .  S
N583        H587   1.046       .  S
N583        H588   1.043       .  S
N586        H589   1.045       .  S
N586        H590   1.045       .  S
C591        C592   1.406   1_554  A
C591        C596   1.414       .  A
C591        H598   1.083       .  S
C592        C593   1.414       .  A
C593        C594   1.393   1_556  A
C593        N600   1.439       .  S
C594        C595   1.396       .  A
C594        H599   1.085       .  S
C595        C596   1.410       .  A
C596        N597   1.437       .  S
N597        H601   1.046       .  S
N597        H602   1.046       .  S
N600        H603   1.045       .  S
N600        H604   1.046       .  S
C605        C606   1.410       .  A
C605        C610   1.421       .  A
C605        H612   1.083       .  S
C606        C607   1.420       .  A
C607        C608   1.409       .  A
C607        N614   1.439       .  S
C608        C609   1.406       .  A
C608        H613   1.084       .  S
C609        C610   1.418       .  A
C610        N611   1.437       .  S
N611        H615   1.046       .  S
N611        H616   1.045       .  S
N614        H617   1.046       .  S
N614        H618   1.046       .  S
C619        C620   1.408       .  A
C619        C624   1.415       .  A
C619        H626   1.083       .  S
C620        C621   1.414       .  A
C621        C622   1.397       .  A
C621        N628   1.440       .  S
C622        C623   1.398       .  A
C622        H627   1.085       .  S
C623        C624   1.409       .  A
C624        N625   1.437       .  S
N625        H629   1.046       .  S
N625        H630   1.046       .  S
N628        H631   1.046       .  S
N628        H632   1.046       .  S
C633        C634   1.400       .  A
C633        C638   1.393       .  A
C633        H640   1.084       .  S
C634        C635   1.418       .  A
C635        C636   1.420       .  A
C635        N642   1.437       .  S
C636        C637   1.406       .  A
C636        H641   1.083       .  S
C637        C638   1.415       .  A
C638        N639   1.439       .  S
N639        H643   1.046       .  S
N639        H644   1.043       .  S
N642        H645   1.046       .  S
N642        H646   1.046       .  S
C647        C648   1.401       .  A
C647        C652   1.390   1_556  A
C647        H654   1.085       .  S
C648        C649   1.413   1_556  A
C649        C650   1.413       .  A
C649        N656   1.437       .  S
C650        C651   1.411       .  A
C650        H655   1.082       .  S
C651        C652   1.424       .  A
C652        N653   1.434   1_554  S
N653        H657   1.045   1_556  S
N653        H658   1.045       .  S
N656        H659   1.045       .  S
N656        H660   1.045       .  S
C661        C662   1.406       .  A
C661        C666   1.415       .  A
C661        H668   1.084       .  S
C662        C663   1.409       .  A
C663        C664   1.397   1_556  A
C663        N670   1.433       .  S
C664        C665   1.411       .  A
C664        H669   1.084       .  S
C665        C666   1.417   1_554  A
C666        N667   1.437       .  S
N667        H671   1.046       .  S
N667        H672   1.045       .  S
N670        H673   1.046       .  S
N670        H674   1.044       .  S
C675        C676   1.405       .  A
C675        C680   1.391       .  A
C675        H682   1.085       .  S
C676        C677   1.406       .  A
C677        C678   1.391       .  A
C677        N684   1.438       .  S
C678        C679   1.406       .  A
C678        H683   1.084       .  S
C679        C680   1.398       .  A
C680        N681   1.435       .  S
N681        H685   1.045       .  S
N681        H686   1.045       .  S
N684        H687   1.043       .  S
N684        H688   1.044       .  S
C689        C690   1.394       .  A
C689        C694   1.391       .  A
C689        H696   1.084       .  S
C690        C691   1.431       .  A
C691        C692   1.384       .  A
C691        N698   1.434       .  S
C692        C693   1.389       .  A
C692        H697   1.084       .  S
C693        C694   1.423       .  A
C694        N695   1.440       .  S
N695        H699   1.046       .  S
N695        H700   1.046       .  S
N698        H701   1.045       .  S
N698        H702   1.045       .  S
C703        C704   1.411       .  A
C703        C708   1.414       .  A
C703        H710   1.080       .  S
C704        C705   1.411       .  A
C705        C706   1.408       .  A
C705        N712   1.438       .  S
C706        C707   1.416       .  A
C706        H711   1.084       .  S
C707        C708   1.420       .  A
C708        N709   1.439       .  S
N709        H713   1.046       .  S
N709        H714   1.041       .  S
N712        H715   1.044       .  S
N712        H716   1.046       .  S
C717        C718   1.404       .  A
C717        C722   1.406       .  A
C717        H724   1.084       .  S
C718        C719   1.411       .  A
C719        C720   1.403       .  A
C719        N726   1.439       .  S
C720        C721   1.402       .  A
C720        H725   1.084       .  S
C721        C722   1.415       .  A
C722        N723   1.438       .  S
N723        H727   1.046       .  S
N723        H728   1.044       .  S
N726        H729   1.045       .  S
N726        H730   1.046       .  S
C731        C732   1.406       .  A
C731        C736   1.411       .  A
C731        H738   1.084       .  S
C732        C733   1.417       .  A
C733        C734   1.391       .  A
C733        N740   1.437       .  S
C734        C735   1.400       .  A
C734        H739   1.085       .  S
C735        C736   1.419       .  A
C736        N737   1.437       .  S
N737        H741   1.045       .  S
N737        H742   1.043       .  S
N740        H743   1.042       .  S
N740        H744   1.046       .  S
C745        C746   1.409       .  A
C745        C750   1.401       .  A
C745        H752   1.083       .  S
C746        C747   1.419       .  A
C747        C748   1.405       .  A
C747        N754   1.438       .  S
C748        C749   1.401       .  A
C748        H753   1.084   1_545  S
C749        C750   1.412       .  A
C750        N751   1.439       .  S
N751        H755   1.046       .  S
N751        H756   1.044       .  S
N754        H757   1.046       .  S
N754        H758   1.046   1_545  S
C759        C760   1.408       .  A
C759        C764   1.398       .  A
C759        H766   1.083       .  S
C760        C761   1.416       .  A
C761        C762   1.406       .  A
C761        N768   1.438       .  S
C762        C763   1.402       .  A
C762        H767   1.084       .  S
C763        C764   1.403       .  A
C764        N765   1.435       .  S
N765        H769   1.046       .  S
N765        H770   1.046       .  S
N768        H771   1.046   1_545  S
N768        H772   1.046       .  S
C773        C774   1.406       .  A
C773        C778   1.398   1_554  A
C773        H780   1.084       .  S
C774        C775   1.418   1_554  A
C775        C776   1.413       .  A
C775        N782   1.437       .  S
C776        C777   1.412       .  A
C776        H781   1.083       .  S
C777        C778   1.416       .  A
C778        N779   1.440   1_556  S
N779        H783   1.046       .  S
N779        H784   1.046       .  S
N782        H785   1.042       .  S
N782        H786   1.045       .  S
C787        C788   1.406       .  A
C787        C792   1.396   1_554  A
C787        H794   1.083   1_554  S
C788        C789   1.419       .  A
C789        C790   1.412       .  A
C789        N796   1.438       .  S
C790        C791   1.404   1_554  A
C790        H795   1.084       .  S
C791        C792   1.411       .  A
C792        N793   1.439       .  S
N793        H797   1.046       .  S
N793        H798   1.046       .  S
N796        H799   1.043       .  S
N796        H800   1.046       .  S
C801        C802   1.401       .  A
C801        C806   1.394       .  A
C801        H808   1.084       .  S
C802        C803   1.415       .  A
C803        C804   1.411       .  A
C803        N810   1.437       .  S
C804        C805   1.406       .  A
C804        H809   1.083       .  S
C805        C806   1.417       .  A
C806        N807   1.440       .  S
N807        H811   1.046       .  S
N807        H812   1.046       .  S
N810        H813   1.046       .  S
N810        H814   1.046       .  S
C815        C816   1.403       .  A
C815        C820   1.406       .  A
C815        H822   1.084       .  S
C816        C817   1.405       .  A
C817        C818   1.401       .  A
C817        N824   1.439       .  S
C818        C819   1.411       .  A
C818        H823   1.083       .  S
C819        C820   1.415       .  A
C820        N821   1.438       .  S
N821        H825   1.046       .  S
N821        H826   1.045       .  S
N824        H827   1.045       .  S
N824        H828   1.046       .  S
C829        C830   1.407       .  A
C829        C834   1.419       .  A
C829        H836   1.083       .  S
C830        C831   1.432       .  A
C831        C832   1.413       .  A
C831        N838   1.439       .  S
C832        C833   1.398       .  A
C832        H837   1.084       .  S
C833        C834   1.416       .  A
C834        N835   1.429       .  S
N835        H839   1.044       .  S
N835        H840   1.045       .  S
N838        H841   1.045       .  S
N838        H842   1.046       .  S
C843        C844   1.406       .  A
C843        C848   1.417       .  A
C843        H850   1.083       .  S
C844        C845   1.410       .  A
C845        C846   1.392       .  A
C845        N852   1.439       .  S
C846        C847   1.395       .  A
C846        H851   1.082       .  S
C847        C848   1.412       .  A
C848        N849   1.436       .  S
N849        H853   1.046       .  S
N849        H854   1.046       .  S
N852        H855   1.046       .  S
N852        H856   1.046       .  S
C857        C858   1.401       .  A
C857        C862   1.397       .  A
C857        H864   1.084       .  S
C858        C859   1.415       .  A
C859        C860   1.415       .  A
C859        N866   1.436       .  S
C860        C861   1.406       .  A
C860        H865   1.083       .  S
C861        C862   1.413       .  A
C862        N863   1.434       .  S
N863        H867   1.046       .  S
N863        H868   1.046       .  S
N866        H869   1.045       .  S
N866        H870   1.045       .  S
C871        C872   1.397       .  A
C871        C876   1.399       .  A
C871        H878   1.084       .  S
C872        C873   1.411       .  A
C873        C874   1.406       .  A
C873        N880   1.438   1_455  S
C874        C875   1.406       .  A
C874        H879   1.083       .  S
C875        C876   1.425       .  A
C876        N877   1.433       .  S
N877        H881   1.044       .  S
N877        H882   1.046       .  S
N880        H883   1.045       .  S
N880        H884   1.046       .  S
C885        C886   1.408       .  A
C885        C890   1.406       .  A
C885        H892   1.083       .  S
C886        C887   1.420       .  A
C887        C888   1.399       .  A
C887        N894   1.436       .  S
C888        C889   1.398       .  A
C888        H893   1.085       .  S
C889        C890   1.411       .  A
C890        N891   1.439       .  S
N891        H895   1.046       .  S
N891        H896   1.045       .  S
N894        H897   1.042       .  S
N894        H898   1.046       .  S
C899        C900   1.390       .  A
C899        C904   1.390       .  A
C899        H906   1.084       .  S
C900        C901   1.430       .  A
C901        C902   1.384       .  A
C901        N908   1.434       .  S
C902        C903   1.389       .  A
C902        H907   1.084       .  S
C903        C904   1.425       .  A
C904        N905   1.439       .  S
N905        H909   1.046       .  S
N905        H910   1.046       .  S
N908        H911   1.046       .  S
N908        H912   1.044       .  S
C913        C914   1.400       .  A
C913        C918   1.398   1_556  A
C913        H920   1.084       .  S
C914        C915   1.414   1_556  A
C915        C916   1.413       .  A
C915        N922   1.437       .  S
C916        C917   1.409       .  A
C916        H921   1.083       .  S
C917        C918   1.417       .  A
C918        N919   1.433   1_554  S
N919        H923   1.046   1_455  S
N919        H924   1.046       .  S
N922        H925   1.045       .  S
N922        H926   1.046       .  S
C927        C928   1.405   1_556  A
C927        C932   1.420       .  A
C927        H934   1.083       .  S
C928        C929   1.415       .  A
C929        C930   1.395   1_554  A
C929        N936   1.432       .  S
C930        C931   1.401       .  A
C930        H935   1.084   1_556  S
C931        C932   1.422       .  A
C932        N933   1.436       .  S
N933        H937   1.046       .  S
N933        H938   1.043       .  S
N936        H939   1.045       .  S
N936        H940   1.044       .  S
C941        C942   1.403       .  A
C941        C946   1.405       .  A
C941        H948   1.084       .  S
C942        C943   1.403       .  A
C943        C944   1.401       .  A
C943        N950   1.439       .  S
C944        C945   1.412       .  A
C944        H949   1.083       .  S
C945        C946   1.414       .  A
C946        N947   1.438       .  S
N947        H951   1.046       .  S
N947        H952   1.045       .  S
N950        H953   1.045       .  S
N950        H954   1.046       .  S
C955        C956   1.403       .  A
C955        C960   1.406       .  A
C955        H962   1.084       .  S
C956        C957   1.404       .  A
C957        C958   1.402       .  A
C957        N964   1.439       .  S
C958        C959   1.412       .  A
C958        H963   1.083       .  S
C959        C960   1.415       .  A
C960        N961   1.438       .  S
N961        H965   1.046       .  S
N961        H966   1.045       .  S
N964        H967   1.045       .  S
N964        H968   1.046       .  S
C969        C970   1.417       .  A
C969        C974   1.389       .  A
C969        H976   1.080       .  S
C970        C971   1.400       .  A
C971        C972   1.390       .  A
C971        N978   1.439       .  S
C972        C973   1.416       .  A
C972        H977   1.081       .  S
C973        C974   1.398       .  A
C974        N975   1.439       .  S
N975        H979   1.045       .  S
N975        H980   1.044       .  S
N978        H981   1.045       .  S
N978        H982   1.045       .  S
C983        C984   1.411       .  A
C983        C988   1.418       .  A
C983        H990   1.084       .  S
C984        C985   1.412       .  A
C985        C986   1.406       .  A
C985        N992   1.439       .  S
C986        C987   1.417       .  A
C986        H991   1.083       .  S
C987        C988   1.425       .  A
C988        N989   1.439       .  S
N989        H993   1.046       .  S
N989        H994   1.040       .  S
N992        H995   1.044       .  S
N992        H996   1.046       .  S
C997        C998   1.405       .  A
C997       C1002   1.416       .  A
C997       H1004   1.083       .  S
C998        C999   1.411       .  A
C999       C1000   1.396       .  A
C999       N1006   1.439       .  S
C1000      C1001   1.401       .  A
C1000      H1005   1.084       .  S
C1001      C1002   1.415       .  A
C1002      N1003   1.437       .  S
N1003      H1007   1.046       .  S
N1003      H1008   1.046       .  S
N1006      H1009   1.046       .  S
N1006      H1010   1.046       .  S
C1011      C1012   1.398       .  A
C1011      C1016   1.401       .  A
C1011      H1018   1.084       .  S
C1012      C1013   1.415       .  A
C1013      C1014   1.414       .  A
C1013      N1020   1.436       .  S
C1014      C1015   1.406       .  A
C1014      H1019   1.083       .  S
C1015      C1016   1.423       .  A
C1016      N1017   1.439       .  S
N1017      H1021   1.046       .  S
N1017      H1022   1.045       .  S
N1020      H1023   1.045       .  S
N1020      H1024   1.045       .  S
