geometry optimzed in LAMMPS
_audit_creation_date              2020-12-01 
_audit_creation_method            'lammps2cif' 
_symmetry_space_group_name_H-M    'P1' 
_symmetry_Int_Tables_number       1 
_symmetry_cell_setting            triclinic 
loop_ 
_symmetry_equiv_pos_as_xyz 
  x,y,z 
_cell_length_a                    38.41111539 
_cell_length_b                    38.1958036921593 
_cell_length_c                    44.04687573998385 
_cell_angle_alpha                 91.5518752167794 
_cell_angle_beta                  89.41901342798008 
_cell_angle_gamma                 89.33018576301785 
loop_ 
_atom_site_label 
_atom_site_type_symbol 
_atom_site_fract_x 
_atom_site_fract_y 
_atom_site_fract_z 
_atom_site_charge 
O1          O  0.41228989  0.84671337  0.15421277    -0.82300
C2          C  0.32577010  0.88668382  0.25192632     0.97100
O3          O  0.35330684  0.90223505  0.24466883    -0.71400
O4          O  0.39522721  0.84966245  0.24160267    -0.75000
Al5        Al  0.38842673  0.88691391  0.21616192     1.49000
C6          C  0.41536645  0.82531724  0.23323988     0.92300
O7          O  0.34194284  0.79286465  0.19151801    -0.81200
O8          O  0.32315281  0.88006278  0.14667416    -0.74800
Al9        Al  0.37724164  0.82245594  0.17468103     1.90100
O10         O  0.29926534  0.82951570  0.18270433    -0.73800
O11         O  0.32560119  0.92494318  0.19439815    -0.73700
O12         O  0.30853666  0.86999919  0.23201144    -0.79300
O13         O  0.38252832  0.92610532  0.19229653    -0.77600
O14         O  0.36095556  0.86134922  0.19311685    -1.13700
O15         O  0.43051332  0.87776253  0.19320684    -0.72900
C16         C  0.43519642  0.86516654  0.16670119     0.97800
C17         C  0.31033158  0.79839707  0.18462174     0.94200
Al18       Al  0.31717680  0.87508516  0.18927661     1.55600
O19         O  0.41068119  0.81041340  0.20730208    -0.77500
C20         C  0.35367657  0.94197780  0.19274120     0.98400
C21         C  0.33340439  0.85520806  0.12897715     0.93300
O22         O  0.34994391  0.82889547  0.13881749    -0.82800
O23         O  0.35418393  0.82246913  0.49111139    -0.82300
C24         C  0.34519139  0.87404680  0.37725434     0.97100
O25         O  0.32575271  0.86189905  0.39742525    -0.71400
O26         O  0.30905087  0.82373684  0.44346606    -0.75000
Al27       Al  0.33229724  0.86787909  0.43950765     1.49000
C28         C  0.31889448  0.79244437  0.43783995     0.92300
O29         O  0.41949966  0.79242664  0.43007955    -0.81200
O30         O  0.44552388  0.85958347  0.44246710    -0.74800
Al31       Al  0.38524438  0.81136272  0.45800105     1.90100
O32         O  0.41673497  0.82772330  0.39192059    -0.73800
O33         O  0.40250200  0.91418245  0.43550592    -0.73700
O34         O  0.37617355  0.88299199  0.38309887    -0.79300
O35         O  0.34566100  0.91624513  0.43558611    -0.77600
O36         O  0.37523399  0.84979089  0.43759025    -1.13700
O37         O  0.33444535  0.87531830  0.48201877    -0.72900
C38         C  0.33961836  0.85085110  0.50010757     0.97800
C39         C  0.42941113  0.80089534  0.40394951     0.94200
Al40       Al  0.40757074  0.86965773  0.41511730     1.55600
O41         O  0.35095244  0.78471446  0.43715711    -0.77500
C42         C  0.37450117  0.93182365  0.43731562     0.98400
C43         C  0.44779414  0.84636768  0.46854138     0.93300
O44         O  0.42107305  0.83348002  0.48077135    -0.82800
O45         O  0.41866693  0.18959162  0.23446261    -0.82300
C46         C  0.33370175  0.14044425  0.14077057     0.92300
O47         O  0.36110220  0.12507347  0.14928910    -0.71400
O48         O  0.40420340  0.17623522  0.14748746    -0.75000
Al49       Al  0.39586005  0.14232182  0.17635915     1.49000
C50         C  0.42380270  0.20130283  0.15408600     0.92300
O51         O  0.35031543  0.23916552  0.19117200    -0.81200
O52         O  0.32984614  0.15925310  0.24459308    -0.74800
Al53       Al  0.38403441  0.21174398  0.21186667     1.90100
O54         O  0.30657486  0.20609671  0.20391832    -0.73800
O55         O  0.33172955  0.11010042  0.20170074    -0.73700
O56         O  0.31614457  0.15960195  0.15932399    -0.79300
O57         O  0.38857276  0.10578219  0.20354917    -0.77600
O58         O  0.36810799  0.17133878  0.19694337    -1.13700
O59         O  0.43740349  0.15399916  0.19822895    -0.72900
C60         C  0.44328367  0.17294025  0.22151714     0.97800
C61         C  0.31813825  0.23529588  0.19600648     0.94200
Al62       Al  0.32412374  0.15975374  0.20213395     1.55600
O63         O  0.41800227  0.21908081  0.17854631    -0.77500
C64         C  0.35900820  0.09183333  0.20508639     0.98400
C65         C  0.34113307  0.18440746  0.26077307     0.93300
O66         O  0.35559966  0.21055832  0.24873727    -0.82800
O67         O  0.36092928  0.20366892  0.40339785    -0.82300
C68         C  0.35019785  0.14350887  0.01437659     0.97100
O69         O  0.33433617  0.15022187  0.49280683    -0.71400
O70         O  0.32077385  0.19787231  0.45362155    -0.75000
Al71       Al  0.34157616  0.15144601  0.45046676     1.49000
C72         C  0.33305551  0.22679009  0.46353200     0.92300
O73         O  0.43422093  0.22079063  0.45719175    -0.81200
O74         O  0.45130458  0.14915188  0.44382957    -0.74800
Al75       Al  0.39559232  0.20613371  0.43395487     1.90100
O76         O  0.43241052  0.18761883  0.49619871    -0.73800
O77         O  0.40840740  0.10013635  0.45901420    -0.73700
O78         O  0.38243505  0.13911307  0.00962293    -0.79300
O79         O  0.35334885  0.10256432  0.44815944    -0.77600
O80         O  0.38477034  0.16732552  0.45360985    -1.13700
O81         O  0.34372397  0.14999229  0.40684228    -0.72900
C82         C  0.34890358  0.17649437  0.39106203     0.97800
C83         C  0.44553149  0.21298468  0.48265315     0.94200
Al84       Al  0.41699735  0.14576052  0.47523603     1.55600
O85         O  0.36517766  0.23351772  0.46000601    -0.77500
C86         C  0.38097259  0.08489077  0.45120103     0.98400
C87         C  0.45081433  0.16018697  0.41689103     0.93300
O88         O  0.42643321  0.17997734  0.40771625    -0.82800
O89         O  0.59015725  0.84938849  0.11296242    -0.82300
C90         C  0.66710396  0.89378051  0.01487334     0.97100
O91         O  0.64271491  0.91228322  0.02653226    -0.71400
O92         O  0.59775568  0.86297360  0.02629415    -0.75000
Al93       Al  0.60962365  0.89644129  0.05575004     1.49000
C94         C  0.58131195  0.83585091  0.03240613     0.92300
O95         O  0.65793780  0.79898190  0.06545049    -0.81200
O96         O  0.68041425  0.88076970  0.11971110    -0.74800
Al97       Al  0.62407056  0.82726989  0.08774863     1.90100
O98         O  0.70218869  0.83204194  0.07700448    -0.73800
O99         O  0.67522791  0.93007816  0.07615014    -0.73700
O100        O  0.68711905  0.87654092  0.03201815    -0.79300
O101        O  0.61904366  0.93312360  0.08391972    -0.77600
O102        O  0.63882445  0.86736363  0.07334927    -1.13700
O103        O  0.57012709  0.88657597  0.08036636    -0.72900
C104        C  0.56672658  0.87003116  0.10453909     0.97800
C105        C  0.69001823  0.80190846  0.07151726     0.94200
Al106      Al  0.68321218  0.87914281  0.07595095     1.55600
O107        O  0.58918554  0.81876018  0.05587213    -0.77500
C108        C  0.64784715  0.94817076  0.08203078     0.98400
C109        C  0.67005212  0.85493792  0.13503396     0.93300
O110        O  0.65360260  0.82984719  0.12251096    -0.82800
O111        O  0.64456084  0.80942819  0.27124420    -0.82300
C112        C  0.64592611  0.86642412  0.38757614     0.97100
O113        O  0.66644212  0.85072809  0.36908575    -0.71400
O114        O  0.68547469  0.80956688  0.32310948    -0.75000
Al115      Al  0.66440664  0.85501264  0.32613486     1.49000
C116        C  0.67330651  0.77993439  0.32903265     0.92300
O117        O  0.57352594  0.78648941  0.32911498    -0.81200
O118        O  0.55166966  0.85465053  0.31539115    -0.74800
Al119      Al  0.61059037  0.80166038  0.30293843     1.90100
O120        O  0.57453483  0.82447307  0.36728458    -0.73800
O121        O  0.59734014  0.90719008  0.32493804    -0.73700
O122        O  0.61644761  0.87743610  0.37901207    -0.79300
O123        O  0.65386260  0.90407374  0.32983329    -0.77600
O124        O  0.62069663  0.84038307  0.32461708    -1.13700
O125        O  0.66613039  0.86082054  0.28349687    -0.72900
C126        C  0.66005603  0.83712242  0.26380095     0.97800
C127        C  0.56229306  0.79720986  0.35481643     0.94200
Al128      Al  0.58768031  0.86417198  0.34487767     1.55600
O129        O  0.64149169  0.77367238  0.32544526    -0.77500
C130        C  0.62665500  0.92205682  0.32561104     0.98400
C131        C  0.55065857  0.83894727  0.28960696     0.93300
O132        O  0.57794934  0.82490856  0.27850443    -0.82800
O133        O  0.65252817  0.20306626  0.11551981    -0.82300
C134        C  0.65356127  0.15958641  0.49736051     0.97100
O135        O  0.67610821  0.16912959  0.01661409    -0.71400
O136        O  0.69610978  0.20396337  0.06571888    -0.75000
Al137      Al  0.67332693  0.16059903  0.05870916     1.49000
C138        C  0.68619381  0.23413190  0.05870042     0.92300
O139        O  0.58513240  0.23393493  0.05658572    -0.81200
O140        O  0.56088660  0.16499472  0.06968491    -0.74800
Al141      Al  0.62056887  0.21570168  0.08328404     1.90100
O142        O  0.58545463  0.19539447  0.01871600    -0.73800
O143        O  0.60611598  0.11185158  0.06069823    -0.73700
O144        O  0.62714365  0.14210507  0.00596124    -0.79300
O145        O  0.66210415  0.11250080  0.05159876    -0.77600
O146        O  0.63002110  0.17721759  0.06094450    -1.13700
O147        O  0.67251237  0.15118101  0.10003776    -0.72900
C148        C  0.66514407  0.17294012  0.12123686     0.97800
C149        C  0.57361881  0.22326105  0.03113883     0.94200
Al150      Al  0.59740117  0.15508149  0.04048204     1.55600
O151        O  0.65436770  0.24243047  0.06151760    -0.77500
C152        C  0.63519200  0.09602631  0.05893212     0.98400
C153        C  0.55879895  0.18006054  0.09558961     0.93300
O154        O  0.58534491  0.19438457  0.10685490    -0.82800
O155        O  0.65551569  0.19255193  0.35427925    -0.82300
C156        C  0.66804254  0.12762974  0.24446858     0.97100
O157        O  0.68800547  0.14006293  0.26435686    -0.71400
O158        O  0.70048168  0.18670022  0.30577129    -0.75000
Al159      Al  0.68120436  0.13944618  0.30673648     1.49000
C160        C  0.68715068  0.21440656  0.29491271     0.92300
O161        O  0.58694205  0.20412296  0.29183507    -0.81200
O162        O  0.56851525  0.13892390  0.30896075    -0.74800
Al163      Al  0.62358117  0.19407982  0.32060414     1.90100
O164        O  0.59956957  0.16523728  0.25658034    -0.73800
O165        O  0.61397120  0.08872269  0.30594384    -0.73700
O166        O  0.64083329  0.11171387  0.25207697    -0.79300
O167        O  0.67087076  0.08886987  0.30702513    -0.77600
O168        O  0.63753510  0.15353518  0.30350737    -1.13700
O169        O  0.67688337  0.13912554  0.34982423    -0.72900
C170        C  0.66696905  0.16501177  0.36635707     0.97800
C171        C  0.58082187  0.19029993  0.26605452     0.94200
Al172      Al  0.60789777  0.12809573  0.28240939     1.55600
O173        O  0.65463527  0.21959863  0.29627309    -0.77500
C174        C  0.64221347  0.07268134  0.30980009     0.98400
C175        C  0.56742093  0.15212241  0.33569655     0.93300
O176        O  0.59169574  0.17123408  0.34550730    -0.82800
O177        O  0.80625417  0.65815723  0.17127902    -0.82300
C178        C  0.86967625  0.65356252  0.06050647     0.97100
O179        O  0.85710112  0.67607340  0.07892407    -0.71400
O180        O  0.81459427  0.70067835  0.12013729    -0.75000
Al181      Al  0.85811450  0.67487312  0.12108842     1.49000
C182        C  0.78513625  0.69135686  0.11053228     0.92300
O183        O  0.78382440  0.58938336  0.10842129    -0.81200
O184        O  0.84878287  0.56138916  0.13115238    -0.74800
Al185      Al  0.79849748  0.62516862  0.13754758     1.90100
O186        O  0.82769008  0.58626270  0.07626584    -0.73800
O187        O  0.90490367  0.60408766  0.12752789    -0.73700
O188        O  0.88231905  0.62488989  0.06975152    -0.79300
O189        O  0.90652132  0.66053515  0.12161889    -0.77600
O190        O  0.84031314  0.63196371  0.12082071    -1.13700
O191        O  0.85956608  0.67647156  0.16336791    -0.72900
C192        C  0.83440256  0.67143792  0.18119016     0.97800
C193        C  0.79797722  0.57658707  0.08444868     0.94200
Al194      Al  0.86417405  0.59700012  0.10289885     1.55600
O195        O  0.77636313  0.65970666  0.11268575    -0.77500
C196        C  0.92187150  0.63230418  0.12830661     0.98400
C197        C  0.82916287  0.56100525  0.15465402     0.93300
O198        O  0.81417145  0.58908968  0.16373156    -0.82800
O199        O  0.81364109  0.65483238  0.42516823    -0.82300
C200        C  0.85613077  0.67426465  0.30954970     0.97100
O201        O  0.84170529  0.69184448  0.33097281    -0.71400
O202        O  0.80470570  0.69968475  0.38078404    -0.75000
Al203      Al  0.85187303  0.68648103  0.37280683     1.49000
C204        C  0.77672272  0.68481529  0.37342778     0.92300
O205        O  0.79946719  0.58434852  0.36142708    -0.81200
O206        O  0.87042937  0.57403558  0.37188552    -0.74800
Al207      Al  0.80931183  0.62260615  0.39061755     1.90100
O208        O  0.83214798  0.59977792  0.32385274    -0.73800
O209        O  0.91201311  0.62760591  0.36504035    -0.73700
O210        O  0.87593142  0.64849573  0.31484199    -0.79300
O211        O  0.90126988  0.68410147  0.36523577    -0.77600
O212        O  0.84429932  0.64095971  0.36997747    -1.13700
O213        O  0.86174783  0.68331115  0.41472488    -0.72900
C214        C  0.84040780  0.67153144  0.43387358     0.97800
C215        C  0.81155982  0.57838467  0.33487361     0.94200
Al216      Al  0.87068311  0.61437107  0.34579544     1.55600
O217        O  0.77559103  0.65170833  0.37124140    -0.77500
C218        C  0.92255424  0.65868382  0.36572084     0.98400
C219        C  0.85960184  0.57028804  0.39890705     0.93300
O220        O  0.83936916  0.59269171  0.41143764    -0.82800
O221        O  0.17728328  0.59272568  0.17431139    -0.82300
C222        C  0.12675061  0.66682153  0.07470969     0.97100
O223        O  0.11867167  0.63575149  0.08108540    -0.71400
O224        O  0.17338246  0.59379306  0.08644544    -0.75000
Al225      Al  0.13412631  0.60468016  0.11206400     1.49000
C226        C  0.20133632  0.58110150  0.09645966     0.92300
O227        O  0.22180846  0.66298217  0.13061697    -0.81200
O228        O  0.13529578  0.67669737  0.18063246    -0.74800
Al229      Al  0.19701314  0.62754851  0.15120742     1.90100
O230        O  0.18228372  0.70353796  0.14073230    -0.73800
O231        O  0.08983769  0.66722054  0.13529934    -0.73700
O232        O  0.14019568  0.68709060  0.09448309    -0.79300
O233        O  0.09136462  0.61030691  0.13468197    -0.77600
O234        O  0.15654494  0.63739714  0.13330975    -1.13700
O235        O  0.14582104  0.56773146  0.13873897    -0.72900
C236        C  0.16165317  0.56650883  0.16378038     0.97800
C237        C  0.21390902  0.69469256  0.13667849     0.94200
Al238      Al  0.13839170  0.68023524  0.13732740     1.55600
O239        O  0.21315162  0.59240856  0.12150968    -0.77500
C240        C  0.07401126  0.63850219  0.13716936     0.98400
C241        C  0.16138732  0.67090898  0.19729538     0.93300
O242        O  0.18921787  0.65803510  0.18592756    -0.82800
O243        O  0.18940646  0.66402606  0.33971103    -0.82300
C244        C  0.11639540  0.68170958  0.44649848     0.97100
O245        O  0.13657402  0.69983634  0.43053698    -0.71400
O246        O  0.18604214  0.71085527  0.39036418    -0.75000
Al247      Al  0.13867634  0.69632017  0.38713014     1.49000
C248        C  0.21269575  0.69528947  0.40009099     0.92300
O249        O  0.19151751  0.59711755  0.40366839    -0.81200
O250        O  0.12491225  0.58314684  0.37793828    -0.74800
Al251      Al  0.18734497  0.63271772  0.37350335     1.90100
O252        O  0.14620221  0.60791474  0.43320824    -0.73800
O253        O  0.08219175  0.63668086  0.37561622    -0.73700
O254        O  0.09957344  0.65694601  0.43417846    -0.79300
O255        O  0.08849485  0.69300710  0.38388677    -0.77600
O256        O  0.14738312  0.65057711  0.38799360    -1.13700
O257        O  0.14050167  0.69481697  0.34415370    -0.72900
C258        C  0.16499552  0.68170480  0.32796038     0.97800
C259        C  0.17337176  0.59052890  0.42699633     0.94200
Al260      Al  0.11566886  0.62334852  0.40384952     1.55600
O261        O  0.21471613  0.66233679  0.39895542    -0.77500
C262        C  0.06991656  0.66733714  0.37572275     0.98400
C263        C  0.14375341  0.57780952  0.35463529     0.93300
O264        O  0.16555082  0.60028278  0.34659217    -0.82800
O265        O  0.82058088  0.41319894  0.29467064    -0.82300
C266        C  0.88074856  0.34080549  0.19468046     0.97100
O267        O  0.89534075  0.36638042  0.20831133    -0.71400
O268        O  0.84542548  0.41191706  0.20955491    -0.75000
Al269      Al  0.87542367  0.39734550  0.23958798     1.49000
C270        C  0.81636073  0.42660713  0.21404100     0.92300
O271        O  0.77919111  0.34558809  0.24251477    -0.81200
O272        O  0.85794374  0.32147862  0.29520375    -0.74800
Al273      Al  0.80385379  0.37942850  0.26708010     1.90100
O274        O  0.81431823  0.30191563  0.25123543    -0.73800
O275        O  0.90812679  0.32956087  0.25585240    -0.73700
O276        O  0.86115063  0.32057724  0.20936262    -0.79300
O277        O  0.90925433  0.38511137  0.26887691    -0.77600
O278        O  0.84568861  0.36640693  0.25309094    -1.13700
O279        O  0.86034984  0.43578013  0.26599018    -0.72900
C280        C  0.83800563  0.43904537  0.28718626     0.97800
C281        C  0.78412002  0.31314168  0.24625010     0.94200
Al282      Al  0.85915763  0.32171065  0.25269167     1.55600
O283        O  0.79653314  0.41644096  0.23570234    -0.77500
C284        C  0.92394778  0.35535468  0.26750654     0.98400
C285        C  0.83283524  0.33157616  0.31216741     0.93300
O286        O  0.80657742  0.34787021  0.30143773    -0.82800
O287        O  0.81870696  0.35493972  0.45266282    -0.82300
C288        C  0.87605923  0.35438780  0.06532145     0.97100
O289        O  0.86441636  0.33272607  0.04595618    -0.71400
O290        O  0.81861155  0.31674710  0.00448742    -0.75000
Al291      Al  0.86496584  0.33557558  0.00296771     1.49000
C292        C  0.78925677  0.33030919  0.01199645     0.92300
O293        O  0.79808445  0.43122333  0.00768619    -0.81200
O294        O  0.87221269  0.44536938  0.49371140    -0.74800
Al295      Al  0.81584003  0.39117743  0.48278091     1.90100
O296        O  0.83352335  0.42993087  0.04586742    -0.73800
O297        O  0.91712652  0.40185830  0.00438905    -0.73700
O298        O  0.88393042  0.38511784  0.05788080    -0.79300
O299        O  0.91740075  0.34361906  0.50198705    -0.77600
O300        O  0.85035391  0.37995235  0.00359573    -1.13700
O301        O  0.87069030  0.33294908  0.45851551    -0.72900
C302        C  0.84482905  0.33876993  0.44181146     0.97800
C303        C  0.80734506  0.44295077  0.03318629     0.94200
Al304      Al  0.87362725  0.41306433  0.02342575     1.55600
O305        O  0.78695639  0.36323346  0.50750676    -0.77500
C306        C  0.93207889  0.37249372  0.00091558     0.98400
C307        C  0.86143779  0.44444442  0.46650825     0.93300
O308        O  0.84255278  0.41968405  0.45675742    -0.82800
O309        O  0.18420618  0.42874125  0.46702583    -0.82300
C310        C  0.13737807  0.35679225  0.06841364     0.97100
O311        O  0.12657312  0.38650928  0.06028763    -0.71400
O312        O  0.17769444  0.43175431  0.05318014    -0.75000
Al313      Al  0.13979424  0.41679652  0.02832280     1.49000
C314        C  0.20473082  0.44552327  0.04232563     0.92300
O315        O  0.23541744  0.36194305  0.51040443    -0.81200
O316        O  0.15051075  0.33998562  0.46342667    -0.74800
Al317      Al  0.20725915  0.39508764  0.48999665     1.90100
O318        O  0.20005803  0.31801476  0.50329502    -0.73800
O319        O  0.10452970  0.34855677  0.50845582    -0.73700
O320        O  0.15374296  0.33655353  0.04979367    -0.79300
O321        O  0.09864110  0.40662538  0.00579136    -0.77600
O322        O  0.16543802  0.38487510  0.00802071    -1.13700
O323        O  0.15237623  0.45217510  0.50376277    -0.72900
C324        C  0.16822805  0.45475025  0.47865296     0.97800
C325        C  0.23067113  0.32946069  0.50643729     0.94200
Al326      Al  0.15407971  0.33851868  0.50656371     1.55600
O327        O  0.21740980  0.43413585  0.01726560    -0.77500
C328        C  0.08405047  0.37721449  0.00388068     0.98400
C329        C  0.17491378  0.34802626  0.44551262     0.93300
O330        O  0.20152118  0.36362218  0.45558395    -0.82800
O331        O  0.19385008  0.35444167  0.30112553    -0.82300
C332        C  0.11849747  0.34397756  0.19806457     0.97100
O333        O  0.13799814  0.32450157  0.21345293    -0.71400
O334        O  0.18883198  0.31222711  0.25074848    -0.75000
Al335      Al  0.14111501  0.32587482  0.25670184     1.49000
C336        C  0.21270613  0.32870418  0.23756104     0.92300
O337        O  0.19006211  0.42709342  0.24269416    -0.81200
O338        O  0.12459784  0.43783972  0.27185010    -0.74800
Al339      Al  0.18832539  0.38863507  0.27002075     1.90100
O340        O  0.14468671  0.41745407  0.21414184    -0.73800
O341        O  0.08266707  0.38422753  0.27193461    -0.73700
O342        O  0.10039825  0.36779707  0.21152681    -0.79300
O343        O  0.09121408  0.32850376  0.26200649    -0.77600
O344        O  0.14824162  0.37164576  0.25699324    -1.13700
O345        O  0.14462957  0.32545888  0.29982625    -0.72900
C346        C  0.17045880  0.33715088  0.31448437     0.97800
C347        C  0.17151288  0.43448440  0.22016717     0.94200
Al348      Al  0.11547607  0.39963912  0.24357201     1.55600
O349        O  0.21411496  0.36159023  0.24042272    -0.77500
C350        C  0.07154443  0.35341197  0.27128138     0.98400
C351        C  0.14448537  0.44140367  0.29445745     0.93300
O352        O  0.16670102  0.41795043  0.30023320    -0.82800
C353        C  0.17237186  0.33312950  0.34792376    -0.00600
C354        C  0.14117360  0.33261020  0.36489683    -0.12500
C355        C  0.14116874  0.33621834  0.39671956     0.01600
C356        C  0.17303557  0.33973695  0.41231693    -0.00700
C357        C  0.20427291  0.33806005  0.39537020    -0.12500
C358        C  0.20424300  0.33492705  0.36362715     0.01500
H359        H  0.11647947  0.33170140  0.35318696     0.14500
H360        H  0.22899696  0.34015390  0.40692643     0.14500
C361        C  0.23740359  0.33420468  0.34783452     0.36100
C362        C  0.10796409  0.33905059  0.41233611     0.36000
N363        N  0.26399173  0.33374341  0.33522278    -0.44200
N364        N  0.08131785  0.34151957  0.42476543    -0.44200
C365        C  0.13009652  0.34678476  0.10029450    -0.00600
C366        C  0.09967665  0.36029925  0.11451912    -0.12500
C367        C  0.09428708  0.35813732  0.14593652     0.01600
C368        C  0.11914383  0.34101654  0.16405816    -0.00700
C369        C  0.14843818  0.32529992  0.14936642    -0.12500
C370        C  0.15425129  0.32832412  0.11794212     0.01500
H371        H  0.08087272  0.37453910  0.10126765     0.14500
H372        H  0.16832403  0.31298933  0.16270292     0.14500
C373        C  0.18680251  0.31532442  0.10510593     0.36100
C374        C  0.06443082  0.37643155  0.15899694     0.36000
N375        N  0.21299624  0.30513880  0.09485551    -0.44200
N376        N  0.04097808  0.39182114  0.16955310    -0.44200
C377        C  0.97103570  0.37106987  0.99688287    -0.00600
C378        C  0.98855467  0.40171610  0.98885935    -0.12500
C379        C  0.02510729  0.40363872  0.98901712     0.01600
C380        C  0.04548120  0.37479553  0.99839722    -0.00700
C381        C  0.03139453  0.34237779  0.50256420    -0.12500
C382        C  0.99483274  0.34001930  0.50182703     0.01500
H383        H  0.97356615  0.42468249  0.98273489     0.14500
H384        H  0.04659850  0.31885202  0.50653540     0.14500
C385        C  0.97956897  0.30610288  0.50594840     0.36100
C386        C  0.04085726  0.43548708  0.97892589     0.36000
N387        N  0.96742708  0.27884014  0.50913665    -0.44200
N388        N  0.05355731  0.46085627  0.97055832    -0.44200
C389        C  0.96089290  0.35092253  0.27606125    -0.00600
C390        C  0.97927961  0.32154205  0.26406907    -0.12500
C391        C  0.01559248  0.31985022  0.26471850     0.01600
C392        C  0.03421996  0.34791958  0.27801873    -0.00700
C393        C  0.01559871  0.37496065  0.29351398    -0.12500
C394        C  0.97926355  0.37675414  0.29262877     0.01500
H395        H  0.96551286  0.30089747  0.25197316     0.14500
H396        H  0.02956496  0.39609420  0.30475590     0.14500
C397        C  0.96185525  0.40602711  0.30796170     0.36100
C398        C  0.03265527  0.29062229  0.24897837     0.36000
N399        N  0.94801249  0.42951645  0.32029850    -0.44200
N400        N  0.04611631  0.26718072  0.23624343    -0.44200
C401        C  0.83580311  0.32611605  0.34527519    -0.00600
C402        C  0.86916937  0.32717142  0.35833995    -0.12500
C403        C  0.87340327  0.32852291  0.38995658     0.01600
C404        C  0.84378645  0.32833197  0.40913247    -0.00700
C405        C  0.81080113  0.32385081  0.39596857    -0.12500
C406        C  0.80655117  0.32299140  0.36447008     0.01500
H407        H  0.89202471  0.32937531  0.34383084     0.14500
H408        H  0.78780788  0.32278710  0.41045256     0.14500
C409        C  0.77185024  0.31942054  0.35261484     0.36100
C410        C  0.90797048  0.33342782  0.40182249     0.36000
N411        N  0.74393553  0.31652579  0.34332959    -0.44200
N412        N  0.93570496  0.33750038  0.41122044    -0.44200
C413        C  0.88465570  0.33679387  0.16109349    -0.00600
C414        C  0.85787004  0.32072392  0.14450676    -0.12500
C415        C  0.85567554  0.32412471  0.11292874     0.01600
C416        C  0.88049340  0.34423258  0.09736638    -0.00700
C417        C  0.90901153  0.35746062  0.11351519    -0.12500
C418        C  0.91152433  0.35351411  0.14495570     0.01500
H419        H  0.83724750  0.30746247  0.15640144     0.14500
H420        H  0.92886633  0.37188373  0.10167608     0.14500
C421        C  0.94158691  0.36758739  0.16013990     0.36100
C422        C  0.82614261  0.30896740  0.09773603     0.36000
N423        N  0.96556800  0.37871970  0.17259824    -0.44200
N424        N  0.80232796  0.29646701  0.08602027    -0.44200
C425        C  0.17922695  0.55816439  0.44374108    -0.00600
C426        C  0.19482097  0.52954218  0.42803060    -0.12500
C427        C  0.19112267  0.49547776  0.43833419     0.01600
C428        C  0.17122593  0.48958273  0.46497306    -0.00700
C429        C  0.15734335  0.51857483  0.48145493    -0.12500
C430        C  0.16155510  0.55248940  0.47141789     0.01500
H431        H  0.20817693  0.53342530  0.40660006     0.14500
H432        H  0.14341844  0.51496687  0.50265136     0.14500
C433        C  0.14726209  0.58087264  0.49013898     0.36100
C434        C  0.20770732  0.46745343  0.42064316     0.36000
N435        N  0.13618771  0.60338528  0.50557545    -0.44200
N436        N  0.22120942  0.44514208  0.40645935    -0.44200
C437        C  0.14288037  0.54331816  0.33873647    -0.00600
C438        C  0.17431514  0.52464434  0.33505114    -0.12500
C439        C  0.17514029  0.49074612  0.32220496     0.01600
C440        C  0.14393158  0.47496900  0.31223371    -0.00700
C441        C  0.11239034  0.49372744  0.31604579    -0.12500
C442        C  0.11160324  0.52744994  0.32957809     0.01500
H443        H  0.19836917  0.53649202  0.34261307     0.14500
H444        H  0.08836197  0.48215224  0.30816406     0.14500
C445        C  0.07866365  0.54581391  0.33272441     0.36100
C446        C  0.20870886  0.47368501  0.31822663     0.36000
N447        N  0.05227233  0.56058831  0.33517911    -0.44200
N448        N  0.23564747  0.46011547  0.31504068    -0.44200
C449        C  0.12053851  0.67855821  0.04334371    -0.00600
C450        C  0.08964777  0.66855618  0.02885846    -0.12500
C451        C  0.08699970  0.67227490  0.49731763     0.01600
C452        C  0.11440256  0.68671607  0.48007883    -0.00700
C453        C  0.14352285  0.70010782  0.49550731    -0.12500
C454        C  0.14635787  0.69559829  0.02637967     0.01500
H455        H  0.06929839  0.65616248  0.04185482     0.14500
H456        H  0.16482292  0.71112591  0.48270437     0.14500
C457        C  0.17863860  0.70640057  0.04005114     0.36100
C458        C  0.05585076  0.65863034  0.48344719     0.36000
N459        N  0.20450338  0.71498791  0.05107644    -0.44200
N460        N  0.03107449  0.64725537  0.47238377    -0.44200
C461        C  0.16046232  0.67867047  0.23048526    -0.00600
C462        C  0.19187330  0.68710890  0.24505965    -0.12500
C463        C  0.19376608  0.68986599  0.27677669     0.01600
C464        C  0.16369928  0.68463597  0.29458398    -0.00700
C465        C  0.13196649  0.67784273  0.28006341    -0.12500
C466        C  0.13017942  0.67436805  0.24834673     0.01500
H467        H  0.21534169  0.69069380  0.23161769     0.14500
H468        H  0.10886351  0.67303947  0.29365503     0.14500
C469        C  0.09779505  0.66324283  0.23503395     0.36100
C470        C  0.22678095  0.69808215  0.29050577     0.36000
N471        N  0.07197090  0.65401167  0.22432260    -0.44200
N472        N  0.25319205  0.70474568  0.30154448    -0.44200
C473        C  0.16529032  0.53293136  0.17905205    -0.00600
C474        C  0.15988473  0.50230573  0.16158554    -0.12500
C475        C  0.16539338  0.46955432  0.17366070     0.01600
C476        C  0.17666383  0.46682189  0.20382364    -0.00700
C477        C  0.18349754  0.49730088  0.22108687    -0.12500
C478        C  0.17760285  0.53031955  0.20913671     0.01500
H479        H  0.15149383  0.50379278  0.13821421     0.14500
H480        H  0.19089302  0.49537632  0.24469575     0.14500
C481        C  0.18263335  0.56066313  0.22889144     0.36100
C482        C  0.15851491  0.43915730  0.15467827     0.36000
N483        N  0.18660711  0.58487484  0.24480659    -0.44200
N484        N  0.15327245  0.41507613  0.13902822    -0.44200
C485        C  0.21575954  0.54814487  0.08203620    -0.00600
C486        C  0.21979838  0.51874474  0.10039996    -0.12500
C487        C  0.22050876  0.48455253  0.08758726     0.01600
C488        C  0.21713791  0.47928852  0.05601501    -0.00700
C489        C  0.21859351  0.50878474  0.03748064    -0.12500
C490        C  0.21791920  0.54301070  0.05028686     0.01500
H491        H  0.21977201  0.52225998  0.12485792     0.14500
H492        H  0.21781552  0.50520913  0.01306141     0.14500
C493        C  0.21972824  0.57259936  0.03068605     0.36100
C494        C  0.22526463  0.45512634  0.10698348     0.36000
N495        N  0.22201445  0.59652695  0.01525071    -0.44200
N496        N  0.23008849  0.43134648  0.12217746    -0.44200
C497        C  0.86780372  0.53808102  0.41543499    -0.00600
C498        C  0.86846709  0.50553793  0.39966144    -0.12500
C499        C  0.86819295  0.47406674  0.41551762     0.01600
C500        C  0.86784638  0.47514268  0.44762395    -0.00700
C501        C  0.87032390  0.50753331  0.46297460    -0.12500
C502        C  0.86986087  0.53861833  0.44738018     0.01500
H503        H  0.86710542  0.50466022  0.37507401     0.14500
H504        H  0.87033485  0.50887666  0.48762734     0.14500
C505        C  0.86980749  0.57047868  0.46540822     0.36100
C506        C  0.86815958  0.44132193  0.39839820     0.36000
N507        N  0.86933665  0.59512126  0.48111762    -0.44200
N508        N  0.86833460  0.41516348  0.38451763    -0.44200
C509        C  0.03269989  0.67181626  0.36918135    -0.00600
C510        C  0.01819614  0.64951521  0.34705924    -0.12500
C511        C  0.98224141  0.64607661  0.34486050     0.01600
C512        C  0.96014433  0.66504315  0.36526883    -0.00700
C513        C  0.97436376  0.68947315  0.38580785    -0.12500
C514        C  0.01052395  0.69295726  0.38800886     0.01500
H515        H  0.03513781  0.63372016  0.33214860     0.14500
H516        H  0.95728912  0.70449231  0.40118929     0.14500
C517        C  0.02409563  0.71617899  0.41132592     0.36100
C518        C  0.96861935  0.62308216  0.32136152     0.36000
N519        N  0.03504184  0.73476857  0.42999434    -0.44200
N520        N  0.95755674  0.60486734  0.30247381    -0.44200
C521        C  0.80932947  0.54334328  0.31948886    -0.00600
C522        C  0.79958061  0.51442723  0.33660972    -0.12500
C523        C  0.80845614  0.48008404  0.32687922     0.01600
C524        C  0.82863007  0.47433551  0.29998428    -0.00700
C525        C  0.83591744  0.50304622  0.28192938    -0.12500
C526        C  0.82578135  0.53695030  0.29085827     0.01500
H527        H  0.78674945  0.51865060  0.35843347     0.14500
H528        H  0.84927822  0.49905491  0.26030877     0.14500
C529        C  0.83438296  0.56470146  0.27049123     0.36100
C530        C  0.79689537  0.45163233  0.34529076     0.36000
N531        N  0.84164795  0.58679716  0.25419808    -0.44200
N532        N  0.78713166  0.42897530  0.35996227    -0.44200
C533        C  0.82186954  0.52655539  0.16986077    -0.00600
C534        C  0.83377506  0.49541634  0.15532237    -0.12500
C535        C  0.82740411  0.46238392  0.16734762     0.01600
C536        C  0.81015135  0.45897722  0.19574166    -0.00700
C537        C  0.79597773  0.48976434  0.20944907    -0.12500
C538        C  0.80070983  0.52303830  0.19639754     0.01500
H539        H  0.84792068  0.49663540  0.13392937     0.14500
H540        H  0.78240949  0.48813174  0.23108831     0.14500
C541        C  0.78297370  0.55280148  0.21055280     0.36100
C542        C  0.83890817  0.43208097  0.14965606     0.36000
N543        N  0.76830993  0.57654617  0.22171796    -0.44200
N544        N  0.84757158  0.40799335  0.13493103    -0.44200
C545        C  0.03475857  0.63775239  0.13999380    -0.00600
C546        C  0.01762229  0.60541274  0.14229408    -0.12500
C547        C  0.98099102  0.60294630  0.14059382     0.01600
C548        C  0.96030314  0.63315697  0.13538760    -0.00700
C549        C  0.97729143  0.66566626  0.13534675    -0.12500
C550        C  0.01362357  0.66831368  0.13803651     0.01500
H551        H  0.03292488  0.58166978  0.14492176     0.14500
H552        H  0.96215911  0.68950549  0.13259737     0.14500
C553        C  0.02813602  0.70302455  0.13821313     0.36100
C554        C  0.96559128  0.56905013  0.14444941     0.36000
N555        N  0.03956480  0.73093474  0.13855939    -0.44200
N556        N  0.95329157  0.54191692  0.14795344    -0.44200
C557        C  0.83856774  0.67949358  0.21422709    -0.00600
C558        C  0.81108925  0.67157135  0.23406335    -0.12500
C559        C  0.81574517  0.67216167  0.26549741     0.01600
C560        C  0.84816303  0.68150492  0.27779037    -0.00700
C561        C  0.87503844  0.69153050  0.25841615    -0.12500
C562        C  0.87059654  0.69092836  0.22689086     0.01500
H563        H  0.78648186  0.66265235  0.22503846     0.14500
H564        H  0.90010709  0.69829642  0.26790239     0.14500
C565        C  0.90017025  0.70055537  0.20851298     0.36100
C566        C  0.78818308  0.65885533  0.28421908     0.36000
N567        N  0.92401703  0.70826322  0.19398466    -0.44200
N568        N  0.76609598  0.64727174  0.29869973    -0.44200
C569        C  0.86466014  0.65957256  0.02798205    -0.00600
C570        C  0.83028367  0.66485105  0.01859838    -0.12500
C571        C  0.82040971  0.67794377  0.48842157     0.01600
C572        C  0.84760966  0.67514651  0.46672959    -0.00700
C573        C  0.88204237  0.67046811  0.47674290    -0.12500
C574        C  0.89196351  0.66107329  0.00657084     0.01500
H575        H  0.80919116  0.66453714  0.03525212     0.14500
H576        H  0.90320478  0.66841390  0.46022965     0.14500
C577        C  0.92781023  0.65751217  0.01558590     0.36100
C578        C  0.78494710  0.68549459  0.47988009     0.36000
N579        N  0.95657565  0.65473302  0.02280388    -0.44200
N580        N  0.75653141  0.69162028  0.47310659    -0.44200
C581        C  0.78409092  0.54499323  0.06898257    -0.00600
C582        C  0.77704531  0.51610518  0.08718300    -0.12500
C583        C  0.78133690  0.48173424  0.07544195     0.01600
C584        C  0.79181496  0.47619994  0.04498353    -0.00700
C585        C  0.79321685  0.50487298  0.02579603    -0.12500
C586        C  0.78978022  0.53910154  0.03754673     0.01500
H587        H  0.77222973  0.52019360  0.11133203     0.14500
H588        H  0.80054251  0.50074162  0.00208955     0.14500
C589        C  0.79568112  0.56756602  0.01732436     0.36100
C590        C  0.77561474  0.45264851  0.09499526     0.36000
N591        N  0.80051556  0.58985582  0.00059682    -0.44200
N592        N  0.77035672  0.42927947  0.11050542    -0.44200
C593        C  0.75486737  0.28841153  0.25100110    -0.00600
C594        C  0.72544886  0.30048819  0.26757300    -0.12500
C595        C  0.70300539  0.27703008  0.28190746     0.01600
C596        C  0.70964857  0.24048830  0.27974515    -0.00700
C597        C  0.73765470  0.22834939  0.26149652    -0.12500
C598        C  0.75993395  0.25172592  0.24705080     0.01500
H599        H  0.72151367  0.32842378  0.27148830     0.14500
H600        H  0.74232598  0.20037365  0.25864006     0.14500
C601        C  0.78846758  0.23726193  0.22894411     0.36100
C602        C  0.67515359  0.29141297  0.30081570     0.36000
N603        N  0.81130488  0.22554059  0.21448740    -0.44200
N604        N  0.65302453  0.30305997  0.31613854    -0.44200
C605        C  0.71234094  0.25898691  0.04680904    -0.00600
C606        C  0.70511887  0.29516720  0.04740724    -0.12500
C607        C  0.72929057  0.31914026  0.03615016     0.01600
C608        C  0.76145573  0.30693394  0.02352722    -0.00700
C609        C  0.76816201  0.27070885  0.02249407    -0.12500
C610        C  0.74446417  0.24693531  0.03395862     0.01500
H611        H  0.68062144  0.30486869  0.05706037     0.14500
H612        H  0.79155334  0.26059408  0.50759233     0.14500
C613        C  0.75414517  0.21026928  0.03142396     0.36100
C614        C  0.72042423  0.35594718  0.03837971     0.36000
N615        N  0.75833599  0.18157876  0.52218871    -0.44200
N616        N  0.71328466  0.38545729  0.04020112    -0.44200
C617        C  0.66669330  0.16253573  0.39995658    -0.00600
C618        C  0.67519614  0.19189642  0.41815252    -0.12500
C619        C  0.67205630  0.19129096  0.44995750     0.01600
C620        C  0.66028439  0.16075318  0.46415545    -0.00700
C621        C  0.65152325  0.13158433  0.44591475    -0.12500
C622        C  0.65438071  0.13226720  0.41420783     0.01500
H623        H  0.68349265  0.21568714  0.40743749     0.14500
H624        H  0.64149376  0.10837297  0.45647896     0.14500
C625        C  0.64151971  0.10261456  0.39687465     0.36100
C626        C  0.67806955  0.22335086  0.46707251     0.36000
N627        N  0.63073021  0.07890352  0.38321907    -0.44200
N628        N  0.68243298  0.24948540  0.48029016    -0.44200
C629        C  0.66996010  0.16165839  0.15284528    -0.00600
C630        C  0.66689209  0.12566147  0.15863932    -0.12500
C631        C  0.66783686  0.11338434  0.18825476     0.01600
C632        C  0.67315282  0.13711950  0.21263607    -0.00700
C633        C  0.67771133  0.17279256  0.20686259    -0.12500
C634        C  0.67560265  0.18532247  0.17738888     0.01500
H635        H  0.66223522  0.10710815  0.14007918     0.14500
H636        H  0.68083585  0.19132889  0.22570833     0.14500
C637        C  0.67865137  0.22252788  0.17326159     0.36100
C638        C  0.66291074  0.07651367  0.19308093     0.36000
N639        N  0.68090223  0.25240789  0.17015527    -0.44200
N640        N  0.65896793  0.04695466  0.19689041    -0.44200
C641        C  0.69684461  0.75366419  0.34185836    -0.00600
C642        C  0.72062485  0.76562755  0.36348064    -0.12500
C643        C  0.74506496  0.74308508  0.37578816     0.01600
C644        C  0.74635018  0.70735099  0.36622647    -0.00700
C645        C  0.72087284  0.69482903  0.34607695    -0.12500
C646        C  0.69674387  0.71786423  0.33321385     0.01500
H647        H  0.72036652  0.79305502  0.37062203     0.14500
H648        H  0.72103098  0.66748165  0.33897625     0.14500
C649        C  0.67487373  0.70496057  0.30901815     0.36100
C650        C  0.76871212  0.75789852  0.39786270     0.36000
N651        N  0.65787036  0.69474424  0.28920621    -0.44200
N652        N  0.78775790  0.76994756  0.41533625    -0.44200
C653        C  0.64016632  0.03435044  0.31613181    -0.00600
C654        C  0.60752980  0.02074121  0.32458620    -0.12500
C655        C  0.60234763  0.98469905  0.32770447     0.01600
C656        C  0.63016474  0.96078810  0.32218091    -0.00700
C657        C  0.66307343  0.97439765  0.31462770    -0.12500
C658        C  0.66828716  0.01056483  0.31164577     0.01500
H659        H  0.58557130  0.03840182  0.32870505     0.14500
H660        H  0.68497047  0.95663164  0.31065964     0.14500
C661        C  0.70256202  0.02219446  0.30319943     0.36100
C662        C  0.56837576  0.97337010  0.33746067     0.36000
N663        N  0.73009777  0.03145656  0.29648837    -0.44200
N664        N  0.54115273  0.96442883  0.34540048    -0.44200
C665        C  0.71305250  0.77048758  0.07664050    -0.00600
C666        C  0.74914106  0.77302585  0.07138484    -0.12500
C667        C  0.77279348  0.74740845  0.08144296     0.01600
C668        C  0.76073585  0.71800823  0.09736305    -0.00700
C669        C  0.72458246  0.71472802  0.10154425    -0.12500
C670        C  0.70096888  0.74064653  0.09188456     0.01500
H671        H  0.75909587  0.79578060  0.06009539     0.14500
H672        H  0.71476411  0.69265391  0.11385697     0.14500
C673        C  0.66489442  0.73744474  0.10069316     0.36100
C674        C  0.80933375  0.75212183  0.07489371     0.36000
N675        N  0.63607772  0.73494499  0.10815550    -0.44200
N676        N  0.83855028  0.75615503  0.06952034    -0.44200
C677        C  0.64788286  0.98690716  0.08028237    -0.00600
C678        C  0.66760872  0.00145959  0.05692616    -0.12500
C679        C  0.66307827  0.03650047  0.04919725     0.01600
C680        C  0.63873584  0.05819226  0.06534400    -0.00700
C681        C  0.61948061  0.04394109  0.08921645    -0.12500
C682        C  0.62386212  0.00862548  0.09676925     0.01500
H683        H  0.68518438  0.98486103  0.04339104     0.14500
H684        H  0.60134821  0.06048077  0.10220402     0.14500
C685        C  0.60386187  0.99544964  0.12183786     0.36100
C686        C  0.68234511  0.04883634  0.02332389     0.36000
N687        N  0.58796598  0.98500218  0.14206141    -0.44200
N688        N  0.71078282  0.06425372  0.51389986    -0.44200
C689        C  0.67171567  0.88958829  0.48088625    -0.00600
C690        C  0.67660278  0.85540901  0.46883670    -0.12500
C691        C  0.66907707  0.84726359  0.43831923     0.01600
C692        C  0.65684490  0.87373909  0.41922377    -0.00700
C693        C  0.65382044  0.90819875  0.43081677    -0.12500
C694        C  0.66129863  0.91634156  0.46122900     0.01500
H695        H  0.68355588  0.83443670  0.48385245     0.14500
H696        H  0.64498118  0.92878508  0.41612615     0.14500
C697        C  0.65734148  0.95228522  0.47189628     0.36100
C698        C  0.67066124  0.81104250  0.42814359     0.36000
N699        N  0.65423105  0.98108435  0.48043899    -0.44200
N700        N  0.67153526  0.78183782  0.42044894    -0.44200
C701        C  0.67588545  0.85268922  0.16819122    -0.00600
C702        C  0.67985163  0.81911232  0.18012134    -0.12500
C703        C  0.67688387  0.81365652  0.21129201     0.01600
C704        C  0.66981385  0.84224721  0.23148407    -0.00700
C705        C  0.66887527  0.87626031  0.21988357    -0.12500
C706        C  0.67171679  0.88169189  0.18850342     0.01500
H707        H  0.68377059  0.79662535  0.16477779     0.14500
H708        H  0.66365985  0.89853615  0.23515283     0.14500
C709        C  0.66707776  0.91676024  0.17767822     0.36100
C710        C  0.68080594  0.77833646  0.22179660     0.36000
N711        N  0.66331266  0.94487217  0.16900699    -0.44200
N712        N  0.68401626  0.75004106  0.23019256    -0.44200
C713        C  0.30903970  0.25306565  0.47860603    -0.00600
C714        C  0.31650060  0.28892735  0.47724882    -0.12500
C715        C  0.29260229  0.31457607  0.48820823     0.01600
C716        C  0.26054611  0.30451147  0.50144942    -0.00700
C717        C  0.25444618  0.26864431  0.50483924    -0.12500
C718        C  0.27805032  0.24309441  0.49364589     0.01500
H719        H  0.34027514  0.29706042  0.46615598     0.14500
H720        H  0.23027770  0.26038158  0.51520994     0.14500
C721        C  0.26922597  0.20687891  0.49784499     0.36100
C722        C  0.29776912  0.35250510  0.98021419     0.36000
N723        N  0.26169219  0.17801104  0.50137164    -0.44200
N724        N  0.30408190  0.38136822  0.97527155    -0.44200
C725        C  0.53713304  0.14685491  0.35572441    -0.00600
C726        C  0.54269444  0.14793009  0.38712408    -0.12500
C727        C  0.51481880  0.14921291  0.40757024     0.01600
C728        C  0.48044139  0.15148382  0.39649984    -0.00700
C729        C  0.47474205  0.14758415  0.36518244    -0.12500
C730        C  0.50280898  0.14409103  0.34478775     0.01500
H731        H  0.56905431  0.14859093  0.39576634     0.14500
H732        H  0.44834136  0.14757753  0.35664455     0.14500
C733        C  0.49553544  0.13788528  0.31304874     0.36100
C734        C  0.52268951  0.15024732  0.43961302     0.36000
N735        N  0.48961501  0.13180626  0.28776780    -0.44200
N736        N  0.52914241  0.15089209  0.46523343    -0.44200
C737        C  0.47714177  0.23063460  0.49439293    -0.00600
C738        C  0.47846095  0.23605081  0.02510381    -0.12500
C739        C  0.51152239  0.24337055  0.03687384     0.01600
C740        C  0.54145527  0.23845665  0.01824153    -0.00700
C741        C  0.53926319  0.24074197  0.48784040    -0.12500
C742        C  0.50632533  0.23602164  0.47512351     0.01500
H743        H  0.45596366  0.23571960  0.04020245     0.14500
H744        H  0.56225197  0.23915994  0.47329023     0.14500
C745        C  0.50404906  0.23413888  0.44241352     0.36100
C746        C  0.51413165  0.25569926  0.06794245     0.36000
N747        N  0.50254996  0.23333003  0.41617362    -0.44200
N748        N  0.51611693  0.26708823  0.09245447    -0.44200
C749        C  0.29291878  0.26477675  0.19593408    -0.00600
C750        C  0.25790848  0.25586654  0.19208312    -0.12500
C751        C  0.23127059  0.27702211  0.20425597     0.01600
C752        C  0.23938988  0.30883916  0.21957647    -0.00700
C753        C  0.27402129  0.32040936  0.21915725    -0.12500
C754        C  0.30092103  0.29853120  0.20751759     0.01500
H755        H  0.25142324  0.23048716  0.18216156     0.14500
H756        H  0.28040786  0.34534224  0.22989863     0.14500
C757        C  0.33638503  0.31025836  0.20992346     0.36100
C758        C  0.19619759  0.26403814  0.20194518     0.36000
N759        N  0.36479955  0.31980365  0.21164216    -0.44200
N760        N  0.16839388  0.25292439  0.19986681    -0.44200
C761        C  0.52406999  0.18479653  0.11099981    -0.00600
C762        C  0.52080193  0.20795456  0.13643137    -0.12500
C763        C  0.48803210  0.21738695  0.14897815     0.01600
C764        C  0.45739978  0.20276847  0.13669263    -0.00700
C765        C  0.46074889  0.18066664  0.11067171    -0.12500
C766        C  0.49320548  0.17120858  0.09817474     0.01500
H767        H  0.54389387  0.21964238  0.14614747     0.14500
H768        H  0.43773700  0.16900771  0.10073244     0.14500
C769        C  0.49350325  0.14675045  0.07255228     0.36100
C770        C  0.48688774  0.24202987  0.17439967     0.36000
N771        N  0.49353907  0.12709818  0.05208207    -0.44200
N772        N  0.48614367  0.26203054  0.19461575    -0.44200
C773        C  0.33904043  0.18208246  0.29418175    -0.00600
C774        C  0.34922703  0.15043795  0.30723340    -0.12500
C775        C  0.35172577  0.14762924  0.33878712     0.01600
C776        C  0.34234703  0.17644192  0.35799043    -0.00700
C777        C  0.33103619  0.20775777  0.34489591    -0.12500
C778        C  0.32969051  0.21091559  0.31329342     0.01500
H779        H  0.35736651  0.12843748  0.29262105     0.14500
H780        H  0.32422929  0.23024198  0.35943979     0.14500
C781        C  0.31881450  0.24395184  0.30105381     0.36100
C782        C  0.36766422  0.11643532  0.35058005     0.36000
N783        N  0.31019657  0.27043793  0.29121467    -0.44200
N784        N  0.38102039  0.09173630  0.36000101    -0.44200
C785        C  0.32523691  0.13719039  0.10819880    -0.00600
C786        C  0.33873936  0.10764332  0.09217549    -0.12500
C787        C  0.34493269  0.10848645  0.06100421     0.01600
C788        C  0.33652730  0.13888171  0.04520384    -0.00700
C789        C  0.31842604  0.16648468  0.06023234    -0.12500
C790        C  0.31276010  0.16594260  0.09174178     0.01500
H791        H  0.34753255  0.08498505  0.10446016     0.14500
H792        H  0.31142631  0.18967717  0.04788167     0.14500
C793        C  0.29750492  0.19656498  0.10679639     0.36100
C794        C  0.36184673  0.07867971  0.04596132     0.36000
N795        N  0.28523906  0.22108886  0.11886315    -0.44200
N796        N  0.37549976  0.05499550  0.03375166    -0.44200
C797        C  0.47947175  0.17990299  0.23110989    -0.00600
C798        C  0.48489289  0.20404554  0.25531157    -0.12500
C799        C  0.51843152  0.21206019  0.26515414     0.01600
C800        C  0.54752941  0.19625553  0.25023119    -0.00700
C801        C  0.54211056  0.17600588  0.22357406    -0.12500
C802        C  0.50875370  0.16656879  0.21463343     0.01500
H803        H  0.46283376  0.21588994  0.26741096     0.14500
H804        H  0.56417787  0.16437822  0.21127917     0.14500
C805        C  0.50602925  0.14180370  0.18939504     0.36100
C806        C  0.52175977  0.23468785  0.29173952     0.36000
N807        N  0.50411628  0.12178364  0.16929849    -0.44200
N808        N  0.52421144  0.25274034  0.31312100    -0.44200
C809        C  0.29247652  0.76500440  0.43174710    -0.00600
C810        C  0.30175319  0.73501364  0.41407237    -0.12500
C811        C  0.27655795  0.71068827  0.40483403     0.01600
C812        C  0.24126375  0.71660241  0.41282542    -0.00700
C813        C  0.23240677  0.74516380  0.43215381    -0.12500
C814        C  0.25761128  0.76884703  0.44213984     0.01500
H815        H  0.32850732  0.73118182  0.40648676     0.14500
H816        H  0.20551377  0.74908662  0.43937838     0.14500
C817        C  0.24698096  0.79626120  0.46363165     0.36100
C818        C  0.28731504  0.68100753  0.38588640     0.36000
N819        N  0.23854476  0.81802857  0.48105923    -0.44200
N820        N  0.29600537  0.65713140  0.37081705    -0.44200
C821        C  0.48256381  0.84282946  0.48357639    -0.00600
C822        C  0.48605086  0.82249938  0.01318849    -0.12500
C823        C  0.51820439  0.81704468  0.02756723     0.01600
C824        C  0.54926848  0.82931296  0.01430569    -0.00700
C825        C  0.54715652  0.84523688  0.98592838    -0.12500
C826        C  0.51354783  0.85621224  0.47085418     0.01500
H827        H  0.46255055  0.81313386  0.02394100     0.14500
H828        H  0.56867141  0.86196475  0.47502917     0.14500
C829        C  0.51358937  0.87729821  0.44410800     0.36100
C830        C  0.51818422  0.80084655  0.05681034     0.36000
N831        N  0.51379293  0.89435083  0.42278191    -0.44200
N832        N  0.51834209  0.78799134  0.08030564    -0.44200
C833        C  0.37564739  0.97104175  0.44064035    -0.00600
C834        C  0.40687901  0.98706367  0.44948632    -0.12500
C835        C  0.40962178  0.02367866  0.45261664     0.01600
C836        C  0.38059606  0.04572076  0.44654789    -0.00700
C837        C  0.34954662  0.02964116  0.43723603    -0.12500
C838        C  0.34676053  0.99304836  0.43431934     0.01500
H839        H  0.42941563  0.97083537  0.45437254     0.14500
H840        H  0.32693512  0.04575596  0.43234496     0.14500
C841        C  0.31388379  0.97918180  0.42427991     0.36100
C842        C  0.44256074  0.03742073  0.46265637     0.36000
N843        N  0.28745586  0.96822164  0.41626613    -0.44200
N844        N  0.46901173  0.04822104  0.47078666    -0.44200
C845        C  0.46145641  0.78465506  0.39082969    -0.00600
C846        C  0.49000918  0.78121626  0.41035517    -0.12500
C847        C  0.52412766  0.78070015  0.39885950     0.01600
C848        C  0.52987843  0.78264297  0.36734618    -0.00700
C849        C  0.50124453  0.77996640  0.34772571    -0.12500
C850        C  0.46709229  0.78142625  0.35928086     0.01500
H851        H  0.48597233  0.78290436  0.43475544     0.14500
H852        H  0.50536652  0.78056572  0.32337078     0.14500
C853        C  0.43823921  0.78122609  0.33854684     0.36100
C854        C  0.55275890  0.78039002  0.41983906     0.36000
N855        N  0.41490483  0.78061583  0.32213434    -0.44200
N856        N  0.57564371  0.77985629  0.43671500    -0.44200
C857        C  0.28639152  0.77000352  0.17371444    -0.00600
C858        C  0.25547219  0.78076789  0.15936992    -0.12500
C859        C  0.23349426  0.75701167  0.14473346     0.01600
C860        C  0.24109970  0.72080358  0.14479398    -0.00700
C861        C  0.27207203  0.70965812  0.15876482    -0.12500
C862        C  0.29470226  0.73379031  0.17300398     0.01500
H863        H  0.24859505  0.80833177  0.15856632     0.14500
H864        H  0.27795107  0.68188138  0.15970820     0.14500
C865        C  0.32559598  0.72048298  0.18727073     0.36100
C866        C  0.20336880  0.77085421  0.12947475     0.36000
N867        N  0.35028791  0.70967057  0.19878647    -0.44200
N868        N  0.17924917  0.78196742  0.11729610    -0.44200
C869        C  0.44837654  0.82161650  0.25073226    -0.00600
C870        C  0.47802185  0.80670716  0.23632563    -0.12500
C871        C  0.51161996  0.81215385  0.24799918     0.01600
C872        C  0.51627645  0.83353561  0.27455438    -0.00700
C873        C  0.48646204  0.84672960  0.28968406    -0.12500
C874        C  0.45312801  0.84083047  0.27850552     0.01500
H875        H  0.47522196  0.79219708  0.21499728     0.14500
H876        H  0.48900841  0.86191991  0.31070954     0.14500
C877        C  0.42463961  0.85648238  0.29592863     0.36100
C878        C  0.54055853  0.79543156  0.23200854     0.36000
N879        N  0.40231595  0.86951565  0.31012686    -0.44200
N880        N  0.56368558  0.78178504  0.21925623    -0.44200
C881        C  0.35366382  0.98041825  0.19598542    -0.00600
C882        C  0.38267517  0.99598962  0.20987811    -0.12500
C883        C  0.38412914  0.03204963  0.21507126     0.01600
C884        C  0.35619920  0.05345127  0.20600477    -0.00700
C885        C  0.32653608  0.03776544  0.19321916    -0.12500
C886        C  0.32507210  0.00156439  0.18810882     0.01500
H887        H  0.40432390  0.97987722  0.21713548     0.14500
H888        H  0.30498737  0.05391274  0.18582519     0.14500
C889        C  0.29473192  0.98716057  0.17349780     0.36100
C890        C  0.41452041  0.04615318  0.22987389     0.36000
N891        N  0.27045553  0.97561504  0.16173544    -0.44200
N892        N  0.43887933  0.05740535  0.24172109    -0.44200
C893        C  0.31721528  0.88597615  0.28455480    -0.00600
C894        C  0.31351242  0.85322159  0.29781023    -0.12500
C895        C  0.32040052  0.84915840  0.32873395     0.01600
C896        C  0.33150014  0.87817562  0.34648568    -0.00700
C897        C  0.33146733  0.91148948  0.33400887    -0.12500
C898        C  0.32379203  0.91566765  0.30335491     0.01500
H899        H  0.30871366  0.83024267  0.28350719     0.14500
H900        H  0.33871446  0.93404820  0.34796234     0.14500
C901        C  0.32463856  0.95040302  0.29116996     0.36100
C902        C  0.31921139  0.81450897  0.34100726     0.36000
N903        N  0.32505357  0.97820054  0.28135448    -0.44200
N904        N  0.31823581  0.78676927  0.35089306    -0.44200
C905        C  0.33135498  0.85568143  0.03247005    -0.00600
C906        C  0.32096117  0.82581727  0.04765182    -0.12500
C907        C  0.31904102  0.82580509  0.07915383     0.01600
C908        C  0.32693063  0.85648781  0.09615502    -0.00700
C909        C  0.33331611  0.88764602  0.08089621    -0.12500
C910        C  0.33588267  0.88743491  0.04908257     0.01500
H911        H  0.31624546  0.80169605  0.03488218     0.14500
H912        H  0.33914010  0.91136373  0.09381222     0.14500
C913        C  0.34616191  0.91915481  0.03444816     0.36100
C914        C  0.31054334  0.79319300  0.09304156     0.36000
N915        N  0.35439067  0.94454692  0.02268625    -0.44200
N916        N  0.30400804  0.76632783  0.10300142    -0.44200
C917        C  0.53373343  0.87271490  0.12158625    -0.00600
C918        C  0.50299427  0.87573542  0.10492264    -0.12500
C919        C  0.47055281  0.87378993  0.11915174     0.01600
C920        C  0.46854559  0.87022571  0.15091893    -0.00700
C921        C  0.49928180  0.86895976  0.16783915    -0.12500
C922        C  0.53182026  0.86946157  0.15339794     0.01500
H923        H  0.50428251  0.87785296  0.08041690     0.14500
H924        H  0.49789036  0.86593791  0.19224073     0.14500
C925        C  0.56261636  0.86611531  0.17169306     0.36100
C926        C  0.43995224  0.87491988  0.10041843     0.36000
N927        N  0.58718769  0.86315327  0.18643047    -0.44200
N928        N  0.41569794  0.87552580  0.08508008    -0.44200
O929        O  0.41242998  0.84464838  0.65167815    -0.82300
C930        C  0.32882685  0.88208126  0.75188112     0.97100
O931        O  0.35600487  0.89765560  0.74389009    -0.71400
O932        O  0.39862017  0.84568043  0.73935330    -0.75000
Al933      Al  0.38998658  0.88320897  0.71454242     1.49000
C934        C  0.41819978  0.82120886  0.73001270     0.92300
O935        O  0.34337843  0.78886327  0.68925174    -0.81200
O936        O  0.32203329  0.87684417  0.64677356    -0.74800
Al937      Al  0.37809894  0.81942547  0.67245486     1.90100
O938        O  0.30006267  0.82558531  0.68278946    -0.73800
O939        O  0.32597781  0.92123256  0.69497595    -0.73700
O940        O  0.31087778  0.86539565  0.73245641    -0.79300
O941        O  0.38271134  0.92260065  0.69120940    -0.77600
O942        O  0.36194714  0.85768983  0.69197645    -1.13700
O943        O  0.43103130  0.87514052  0.69079251    -0.72900
C944        C  0.43518351  0.86343610  0.66403595     0.97800
C945        C  0.31143460  0.79447343  0.68341483     0.94200
Al946      Al  0.31784513  0.87118545  0.68950970     1.55600
O947        O  0.41256440  0.80687355  0.70401208    -0.77500
C948        C  0.35387470  0.93845919  0.69257605     0.98400
C949        C  0.33222345  0.85245436  0.62854269     0.93300
O950        O  0.34984186  0.82650284  0.63760031    -0.82800
O951        O  0.35504932  0.82185411  0.99175856    -0.82300
C952        C  0.34883493  0.87095401  0.87759821     0.97100
O953        O  0.32885096  0.85904041  0.89750158    -0.71400
O954        O  0.31047233  0.82312815  0.94432893    -0.75000
Al955      Al  0.33432779  0.86648140  0.93950123     1.49000
C956        C  0.31947351  0.79182761  0.93810488     0.92300
O957        O  0.42078775  0.79009264  0.93113148    -0.81200
O958        O  0.44697261  0.85876110  0.94497415    -0.74800
Al959      Al  0.38628905  0.80958825  0.95882407     1.90100
O960        O  0.42064877  0.82669900  0.89378311    -0.73800
O961        O  0.40374373  0.91351813  0.93698148    -0.73700
O962        O  0.37939240  0.88087706  0.88405494    -0.79300
O963        O  0.34716434  0.91462728  0.93456319    -0.77600
O964        O  0.37723134  0.84827485  0.93844380    -1.13700
O965        O  0.33632371  0.87501621  0.98180814    -0.72900
C966        C  0.34139908  0.85093439  0.00033064     0.97800
C967        C  0.43196052  0.79909470  0.90550698     0.94200
Al968      Al  0.41002462  0.86847918  0.91679464     1.55600
O969        O  0.35142773  0.78344293  0.93748591    -0.77500
C970        C  0.37542701  0.93081683  0.93759060     0.98400
C971        C  0.44907476  0.84436478  0.97053469     0.93300
O972        O  0.42238676  0.83064271  0.98207144    -0.82800
O973        O  0.41764505  0.18801540  0.73656615    -0.82300
C974        C  0.33641991  0.13916254  0.64010003     0.92300
O975        O  0.36387460  0.12404069  0.64882274    -0.71400
O976        O  0.40682865  0.17558614  0.64917323    -0.75000
Al977      Al  0.39739452  0.14102377  0.67726817     1.49000
C978        C  0.42464427  0.20181322  0.65647301     0.92300
O979        O  0.34933166  0.23653689  0.69251610    -0.81200
O980        O  0.32887922  0.15515285  0.74419301    -0.74800
Al981      Al  0.38303625  0.20958536  0.71352393     1.90100
O982        O  0.30590371  0.20251560  0.70394410    -0.73800
O983        O  0.33294582  0.10694184  0.70027729    -0.73700
O984        O  0.31793407  0.15739982  0.65864669    -0.79300
O985        O  0.38962060  0.10360602  0.70352462    -0.77600
O986        O  0.36846067  0.16912800  0.69758940    -1.13700
O987        O  0.43767251  0.15282120  0.70053379    -0.72900
C988        C  0.44270970  0.17163677  0.72404574     0.97800
C989        C  0.31719197  0.23218238  0.69707799     0.94200
Al990      Al  0.32452206  0.15653884  0.70155170     1.55600
O991        O  0.41762163  0.21860952  0.68118428    -0.77500
C992        C  0.36034257  0.08899575  0.70406717     0.98400
C993        C  0.33889163  0.18044252  0.76092969     0.93300
O994        O  0.35358997  0.20689309  0.74961311    -0.82800
O995        O  0.35829693  0.20192535  0.90252526    -0.82300
C996        C  0.35484046  0.14269705  0.51378649     0.97100
O997        O  0.32981449  0.15129285  0.99339839    -0.71400
O998        O  0.31710428  0.19830035  0.95324610    -0.75000
Al999      Al  0.33738261  0.15147162  0.95097269     1.49000
C1000       C  0.32958934  0.22751842  0.96224457     0.92300
O1001       O  0.43090556  0.21983330  0.95706115    -0.81200
O1002       O  0.44781770  0.14815637  0.94513469    -0.74800
Al1003     Al  0.39250300  0.20506136  0.93344012     1.90100
O1004       O  0.42788842  0.18761364  0.99663360    -0.73800
O1005       O  0.40397577  0.10006848  0.96004247    -0.73700
O1006       O  0.38715864  0.13865242  0.50911341    -0.79300
O1007       O  0.34882866  0.10206733  0.94938407    -0.77600
O1008       O  0.38086360  0.16696434  0.95381471    -1.13700
O1009       O  0.33934803  0.14900913  0.90749397    -0.72900
C1010       C  0.34506268  0.17483444  0.89107173     0.97800
C1011       C  0.44190316  0.21219335  0.98270050     0.94200
Al1012     Al  0.41267444  0.14559026  0.97602115     1.55600
O1013       O  0.36181113  0.23374697  0.95851060    -0.77500
C1014       C  0.37668549  0.08457172  0.95226925     0.98400
C1015       C  0.44821152  0.15839679  0.91795845     0.93300
O1016       O  0.42392343  0.17783052  0.90795830    -0.82800
O1017       O  0.58888706  0.85281863  0.61128303    -0.82300
C1018       C  0.66873482  0.89453034  0.51432136     0.97100
O1019       O  0.64371285  0.91315370  0.52473221    -0.71400
O1020       O  0.59853636  0.86376699  0.52404145    -0.75000
Al1021     Al  0.60949064  0.89794832  0.55331960     1.49000
C1022       C  0.58053643  0.83778304  0.53052039     0.92300
O1023       O  0.65576079  0.80071469  0.56460303    -0.81200
O1024       O  0.67815579  0.88249781  0.61949376    -0.74800
Al1025     Al  0.62223720  0.82950419  0.58665330     1.90100
O1026       O  0.70027967  0.83309922  0.57716797    -0.73800
O1027       O  0.67445897  0.93175739  0.57578745    -0.73700
O1028       O  0.68780245  0.87757991  0.53231492    -0.79300
O1029       O  0.61794434  0.93505716  0.58107923    -0.77600
O1030       O  0.63786428  0.86917334  0.57214073    -1.13700
O1031       O  0.56919873  0.88872784  0.57737729    -0.72900
C1032       C  0.56564910  0.87319887  0.60209251     0.97800
C1033       C  0.68779523  0.80318622  0.57100113     0.94200
Al1034     Al  0.68217468  0.88058635  0.57585132     1.55600
O1035       O  0.58721894  0.82127540  0.55459031    -0.77500
C1036       C  0.64687466  0.94997009  0.58069575     0.98400
C1037       C  0.66787403  0.85652135  0.63461223     0.93300
O1038       O  0.65150096  0.83152678  0.62183026    -0.82800
O1039       O  0.64691666  0.80856362  0.77068247    -0.82300
C1040       C  0.64474297  0.86573746  0.88700889     0.97100
O1041       O  0.66581852  0.84968189  0.86913253    -0.71400
O1042       O  0.68639297  0.80882968  0.82300951    -0.75000
Al1043     Al  0.66525214  0.85403937  0.82597133     1.49000
C1044       C  0.67420144  0.77929579  0.82907272     0.92300
O1045       O  0.57421182  0.78544405  0.82753413    -0.81200
O1046       O  0.55297717  0.85382185  0.81220815    -0.74800
Al1047     Al  0.61208794  0.80059840  0.80179946     1.90100
O1048       O  0.57396419  0.82446930  0.86496938    -0.73800
O1049       O  0.59872911  0.90628083  0.82258847    -0.73700
O1050       O  0.61574551  0.87699066  0.87743021    -0.79300
O1051       O  0.65499089  0.90275801  0.82964611    -0.77600
O1052       O  0.62155605  0.83950572  0.82341671    -1.13700
O1053       O  0.66792952  0.86011848  0.78336630    -0.72900
C1054       C  0.66190944  0.83666069  0.76342528     0.97800
C1055       C  0.56254898  0.79656356  0.85302347     0.94200
Al1056     Al  0.58803944  0.86361958  0.84257569     1.55600
O1057       O  0.64243540  0.77301504  0.82523396    -0.77500
C1058       C  0.62818888  0.92074196  0.82431718     0.98400
C1059       C  0.55266688  0.83753945  0.78664568     0.93300
O1060       O  0.58019704  0.82328378  0.77635326    -0.82800
O1061       O  0.65377045  0.20488459  0.61649477    -0.82300
C1062       C  0.65544762  0.15588883  0.99747635     0.97100
O1063       O  0.67501814  0.17255358  0.51604322    -0.71400
O1064       O  0.69723146  0.20622029  0.56538837    -0.75000
Al1065     Al  0.67358841  0.16336539  0.55844231     1.49000
C1066       C  0.68752901  0.23647108  0.55855043     0.92300
O1067       O  0.58679486  0.23793121  0.55772019    -0.81200
O1068       O  0.56133665  0.16853531  0.57148125    -0.74800
Al1069     Al  0.62183868  0.21886083  0.58437378     1.90100
O1070       O  0.58509333  0.19858905  0.52041961    -0.73800
O1071       O  0.60640248  0.11481193  0.56203739    -0.73700
O1072       O  0.62594437  0.14525508  0.50682114    -0.79300
O1073       O  0.66190171  0.11543963  0.55121613    -0.77600
O1074       O  0.63043186  0.18029354  0.56180611    -1.13700
O1075       O  0.67380654  0.15335935  0.59984602    -0.72900
C1076       C  0.66636928  0.17449666  0.62153507     0.97800
C1077       C  0.57465712  0.22717927  0.53251088     0.94200
Al1078     Al  0.59725793  0.15829216  0.54193731     1.55600
O1079       O  0.65598011  0.24524572  0.56245445    -0.77500
C1080       C  0.63544269  0.09888037  0.55954365     0.98400
C1081       C  0.55909580  0.18458742  0.59690914     0.93300
O1082       O  0.58584186  0.19863964  0.60812070    -0.82800
O1083       O  0.65721543  0.18833670  0.85632785    -0.82300
C1084       C  0.66729271  0.12674095  0.74469401     0.97100
O1085       O  0.68747459  0.13913386  0.76444632    -0.71400
O1086       O  0.70036396  0.18500191  0.80654337    -0.75000
Al1087     Al  0.68243273  0.13736809  0.80698196     1.49000
C1088       C  0.68606970  0.21276732  0.79675608     0.92300
O1089       O  0.58600084  0.20022683  0.79661059    -0.81200
O1090       O  0.56969042  0.13399955  0.81274776    -0.74800
Al1091     Al  0.62388775  0.19008469  0.82397554     1.90100
O1092       O  0.59780476  0.16252590  0.76013289    -0.73800
O1093       O  0.61652230  0.08536520  0.80715236    -0.73700
O1094       O  0.64035259  0.11048290  0.75263757    -0.79300
O1095       O  0.67348872  0.08666896  0.80662576    -0.77600
O1096       O  0.63821458  0.15046841  0.80547049    -1.13700
O1097       O  0.68028764  0.13584454  0.85010208    -0.72900
C1098       C  0.67046813  0.16105376  0.86743776     0.97800
C1099       C  0.57931802  0.18726936  0.77064341     0.94200
Al1100     Al  0.60835271  0.12498071  0.78472563     1.55600
O1101       O  0.65349346  0.21722957  0.79928944    -0.77500
C1102       C  0.64525873  0.07005472  0.81021308     0.98400
C1103       C  0.56852521  0.14692855  0.83960919     0.93300
O1104       O  0.59309593  0.16568015  0.84951833    -0.82800
O1105       O  0.80071001  0.65846895  0.67120656    -0.82300
C1106       C  0.86524348  0.65635334  0.56088086     0.97100
O1107       O  0.85298814  0.67814616  0.58003936    -0.71400
O1108       O  0.80980282  0.70075725  0.62127042    -0.75000
Al1109     Al  0.85359416  0.67524728  0.62202592     1.49000
C1110       C  0.78077672  0.69148255  0.61055373     0.92300
O1111       O  0.77941389  0.58888130  0.60826252    -0.81200
O1112       O  0.84407079  0.56210940  0.63009143    -0.74800
Al1113     Al  0.79375615  0.62525917  0.63727119     1.90100
O1114       O  0.82232103  0.58850368  0.57536834    -0.73800
O1115       O  0.90057479  0.60404280  0.62591109    -0.73700
O1116       O  0.87699401  0.62682468  0.56904533    -0.79300
O1117       O  0.90229206  0.66079869  0.62245570    -0.77600
O1118       O  0.83572506  0.63247461  0.62072614    -1.13700
O1119       O  0.85458154  0.67545348  0.66415763    -0.72900
C1120       C  0.82884749  0.67136015  0.68153664     0.97800
C1121       C  0.79358066  0.57688627  0.58400817     0.94200
Al1122     Al  0.85924422  0.59807617  0.60186920     1.55600
O1123       O  0.77192916  0.65974851  0.61211161    -0.77500
C1124       C  0.91780863  0.63206295  0.62738854     0.98400
C1125       C  0.82498770  0.56144924  0.65400073     0.93300
O1126       O  0.80980239  0.58932603  0.66342301    -0.82800
O1127       O  0.81485000  0.65053540  0.92421025    -0.82300
C1128       C  0.85291356  0.67573455  0.80906784     0.97100
O1129       O  0.83946762  0.69246767  0.83146177    -0.71400
O1130       O  0.80476037  0.69773142  0.88271753    -0.75000
Al1131     Al  0.85146364  0.68494104  0.87270385     1.49000
C1132       C  0.77684910  0.68363569  0.87420657     0.92300
O1133       O  0.79858856  0.58388447  0.85820886    -0.81200
O1134       O  0.86972434  0.57239632  0.86672665    -0.74800
Al1135     Al  0.80939877  0.62032524  0.88865249     1.90100
O1136       O  0.83017166  0.60121474  0.82063496    -0.73800
O1137       O  0.91124126  0.62645671  0.86107140    -0.73700
O1138       O  0.87357580  0.65023802  0.81291406    -0.79300
O1139       O  0.90036628  0.68297273  0.86353225    -0.77600
O1140       O  0.84381788  0.63961478  0.86815580    -1.13700
O1141       O  0.86293557  0.67925564  0.91419125    -0.72900
C1142       C  0.84194744  0.66647108  0.93318412     0.97800
C1143       C  0.80977216  0.57940262  0.83119028     0.94200
Al1144     Al  0.86934857  0.61432197  0.84231914     1.55600
O1145       O  0.77540959  0.65062277  0.87097640    -0.77500
C1146       C  0.92167989  0.65755858  0.86268390     0.98400
C1147       C  0.85979556  0.56752613  0.89385611     0.93300
O1148       O  0.84002639  0.58932294  0.90768819    -0.82800
O1149       O  0.17237435  0.59067700  0.67410255    -0.82300
C1150       C  0.12672665  0.66611655  0.57443483     0.97100
O1151       O  0.11860087  0.63481734  0.57993173    -0.71400
O1152       O  0.17266478  0.59207510  0.58616754    -0.75000
Al1153     Al  0.13235896  0.60305948  0.61072548     1.49000
C1154       C  0.19985184  0.57876016  0.59714817     0.92300
O1155       O  0.21953326  0.66002123  0.63185137    -0.81200
O1156       O  0.13177909  0.67433688  0.68049975    -0.74800
Al1157     Al  0.19368965  0.62501903  0.65180290     1.90100
O1158       O  0.18061130  0.70140015  0.64169446    -0.73800
O1159       O  0.08721484  0.66549426  0.63416622    -0.73700
O1160       O  0.13922760  0.68605847  0.59485303    -0.79300
O1161       O  0.08853777  0.60854153  0.63190321    -0.77600
O1162       O  0.15404661  0.63542014  0.63303331    -1.13700
O1163       O  0.14292408  0.56554627  0.63729105    -0.72900
C1164       C  0.15811878  0.56415528  0.66264526     0.97800
C1165       C  0.21217992  0.69187878  0.63777918     0.94200
Al1166     Al  0.13612688  0.67838445  0.63732332     1.55600
O1167       O  0.21054363  0.58976204  0.62264793    -0.77500
C1168       C  0.07115447  0.63671297  0.63482783     0.98400
C1169       C  0.15768581  0.66869862  0.69736405     0.93300
O1170       O  0.18544385  0.65540739  0.68629082    -0.82800
O1171       O  0.18728608  0.66610339  0.83924704    -0.82300
C1172       C  0.11436649  0.68142925  0.94623923     0.97100
O1173       O  0.13416749  0.69993626  0.93024669    -0.71400
O1174       O  0.18354550  0.71226604  0.89013634    -0.75000
Al1175     Al  0.13629188  0.69695703  0.88684698     1.49000
C1176       C  0.21070807  0.69699006  0.89924316     0.92300
O1177       O  0.19071046  0.59827540  0.90212939    -0.81200
O1178       O  0.12443162  0.58355067  0.87648994    -0.74800
Al1179     Al  0.18586527  0.63432940  0.87246919     1.90100
O1180       O  0.14557781  0.60858053  0.93198219    -0.73800
O1181       O  0.08078297  0.63632338  0.87493439    -0.73700
O1182       O  0.09786817  0.65640493  0.93388247    -0.79300
O1183       O  0.08635303  0.69271935  0.88348105    -0.77600
O1184       O  0.14571969  0.65138160  0.88727819    -1.13700
O1185       O  0.13791311  0.69595508  0.84389375    -0.72900
C1186       C  0.16244706  0.68318940  0.82757967     0.97800
C1187       C  0.17277714  0.59142975  0.92550540     0.94200
Al1188     Al  0.11457029  0.62340885  0.90296889     1.55600
O1189       O  0.21299303  0.66403240  0.89807709    -0.77500
C1190       C  0.06829426  0.66687058  0.87485404     0.98400
C1191       C  0.14295949  0.57911886  0.85283884     0.93300
O1192       O  0.16436577  0.60212399  0.84516497    -0.82800
O1193       O  0.82087287  0.41439545  0.79387329    -0.82300
C1194       C  0.87807825  0.33884558  0.69466399     0.97100
O1195       O  0.89256282  0.36504222  0.70736387    -0.71400
O1196       O  0.84168364  0.40934226  0.70776195    -0.75000
Al1197     Al  0.87288052  0.39715883  0.73765592     1.49000
C1198       C  0.81374043  0.42581611  0.71300972     0.92300
O1199       O  0.77641893  0.34600442  0.74450452    -0.81200
O1200       O  0.85674971  0.32342412  0.79613617    -0.74800
Al1201     Al  0.80233027  0.38043418  0.76756654     1.90100
O1202       O  0.81227660  0.30280658  0.75315231    -0.73800
O1203       O  0.90630765  0.33056306  0.75595516    -0.73700
O1204       O  0.85847319  0.31936004  0.71006526    -0.79300
O1205       O  0.90764441  0.38680221  0.76666282    -0.77600
O1206       O  0.84371766  0.36674818  0.75292607    -1.13700
O1207       O  0.85807503  0.43685231  0.76276451    -0.72900
C1208       C  0.83661305  0.44050818  0.78459183     0.97800
C1209       C  0.78180823  0.31363024  0.74855101     0.94200
Al1210     Al  0.85722992  0.32227472  0.75356245     1.55600
O1211       O  0.79445699  0.41692937  0.73552556    -0.77500
C1212       C  0.92242720  0.35706106  0.76604175     0.98400
C1213       C  0.83166400  0.33348332  0.81312545     0.93300
O1214       O  0.80537184  0.34975209  0.80251362    -0.82800
O1215       O  0.81463883  0.35447803  0.95351548    -0.82300
C1216       C  0.87709446  0.35184537  0.56557333     0.97100
O1217       O  0.86686934  0.33049389  0.54531645    -0.71400
O1218       O  0.82102179  0.31643127  0.50326027    -0.75000
Al1219     Al  0.86788647  0.33450372  0.50229312     1.49000
C1220       C  0.79166011  0.33053621  0.51016066     0.92300
O1221       O  0.80221177  0.43177125  0.50642179    -0.81200
O1222       O  0.86778384  0.44671493  0.99206169    -0.74800
Al1223     Al  0.81154423  0.39105502  0.98370600     1.90100
O1224       O  0.83525553  0.42878250  0.54601791    -0.73800
O1225       O  0.92025203  0.40038936  0.50742219    -0.73700
O1226       O  0.88450837  0.38298969  0.55917132    -0.79300
O1227       O  0.91433633  0.34491396  0.00226766    -0.77600
O1228       O  0.85365901  0.37905546  0.50358400    -1.13700
O1229       O  0.86719460  0.33353368  0.95944502    -0.72900
C1230       C  0.84129223  0.33906067  0.94271770     0.97800
C1231       C  0.81025374  0.44289461  0.53244217     0.94200
Al1232     Al  0.87619944  0.41154350  0.52482927     1.55600
O1233       O  0.78392722  0.36285671  0.00930117    -0.77500
C1234       C  0.93515160  0.37130298  0.50235661     0.98400
C1235       C  0.85596570  0.44500549  0.96521459     0.93300
O1236       O  0.83652054  0.42002803  0.95687928    -0.82800
O1237       O  0.18101735  0.42993023  0.96504647    -0.82300
C1238       C  0.13955680  0.35313190  0.56857632     0.97100
O1239       O  0.12911482  0.38321001  0.56108390    -0.71400
O1240       O  0.18113600  0.42761590  0.55542296    -0.75000
Al1241     Al  0.14310079  0.41437982  0.53006052     1.49000
C1242       C  0.20785896  0.44204439  0.54470177     0.92300
O1243       O  0.23313258  0.36459604  0.00933520    -0.81200
O1244       O  0.14811296  0.34084871  0.96319905    -0.74800
Al1245     Al  0.20437921  0.39711594  0.98859835     1.90100
O1246       O  0.19780841  0.32045369  0.00340316    -0.73800
O1247       O  0.10190060  0.34977721  0.00820104    -0.73700
O1248       O  0.15604494  0.33333354  0.54972995    -0.79300
O1249       O  0.10208112  0.40555606  0.50713174    -0.77600
O1250       O  0.16826742  0.38271759  0.50906501    -1.13700
O1251       O  0.14833901  0.45361916  0.00109970    -0.72900
C1252       C  0.16451248  0.45587613  0.97614093     0.97800
C1253       C  0.22845835  0.33201883  0.00581804     0.94200
Al1254     Al  0.15167276  0.34050307  0.00643691     1.55600
O1255       O  0.22049630  0.43134358  0.51939613    -0.77500
C1256       C  0.08706589  0.37640183  0.50477678     0.98400
C1257       C  0.17245149  0.34879971  0.94514944     0.93300
O1258       O  0.19887861  0.36488017  0.95489707    -0.82800
O1259       O  0.19240261  0.35619666  0.80130242    -0.82300
C1260       C  0.11875603  0.34193949  0.69736214     0.97100
O1261       O  0.13787655  0.32311614  0.71360552    -0.71400
O1262       O  0.18775027  0.31166082  0.75186646    -0.75000
Al1263     Al  0.14022130  0.32629629  0.75676825     1.49000
C1264       C  0.21214003  0.32725143  0.73859837     0.92300
O1265       O  0.19105123  0.42560816  0.73993600    -0.81200
O1266       O  0.12525519  0.43923477  0.76775003    -0.74800
Al1267     Al  0.18813165  0.38885292  0.76876949     1.90100
O1268       O  0.14623358  0.41499855  0.71101671    -0.73800
O1269       O  0.08221625  0.38632767  0.76918973    -0.73700
O1270       O  0.10079680  0.36658425  0.70974388    -0.79300
O1271       O  0.09035797  0.33008712  0.76140001    -0.77600
O1272       O  0.14801436  0.37187560  0.75577114    -1.13700
O1273       O  0.14303390  0.32735981  0.79974961    -0.72900
C1274       C  0.16882275  0.33893401  0.81446731     0.97800
C1275       C  0.17309913  0.43201573  0.71680774     0.94200
Al1276     Al  0.11599697  0.39966911  0.74075928     1.55600
O1277       O  0.21407344  0.36013169  0.74060468    -0.77500
C1278       C  0.07073239  0.35564246  0.76926943     0.98400
C1279       C  0.14464647  0.44350420  0.79062119     0.93300
O1280       O  0.16644699  0.42009062  0.79751822    -0.82800
C1281       C  0.17041250  0.33455929  0.84778801    -0.00600
C1282       C  0.13904544  0.33489978  0.86452501    -0.12500
C1283       C  0.13886903  0.33800149  0.89632806     0.01600
C1284       C  0.17069124  0.34015362  0.91208881    -0.00700
C1285       C  0.20206483  0.33740250  0.89536106    -0.12500
C1286       C  0.20221257  0.33470314  0.86359980     0.01500
H1287       H  0.11443442  0.33510204  0.85266192     0.14500
H1288       H  0.22673448  0.33839577  0.90711096     0.14500
C1289       C  0.23539677  0.33248488  0.84787228     0.36100
C1290       C  0.10565544  0.34193448  0.91177514     0.36000
N1291       N  0.26197110  0.33070805  0.83526647    -0.44200
N1292       N  0.07899107  0.34528327  0.92404694    -0.44200
C1293       C  0.13169477  0.34224005  0.60000313    -0.00600
C1294       C  0.10023418  0.35409501  0.61343275    -0.12500
C1295       C  0.09435107  0.35230215  0.64476590     0.01600
C1296       C  0.11988737  0.33739149  0.66355207    -0.00700
C1297       C  0.15015715  0.32279242  0.64961950    -0.12500
C1298       C  0.15636994  0.32532760  0.61823258     0.01500
H1299       H  0.08097003  0.36700087  0.59959967     0.14500
H1300       H  0.17046775  0.31194698  0.66355758     0.14500
C1301       C  0.18967783  0.31368188  0.60599092     0.36100
C1302       C  0.06312481  0.36868914  0.65709896     0.36000
N1303       N  0.21643829  0.30452519  0.59619145    -0.44200
N1304       N  0.03852177  0.38259552  0.66709437    -0.44200
C1305       C  0.97407955  0.37051230  0.49829790    -0.00600
C1306       C  0.99127880  0.40224975  0.49323353    -0.12500
C1307       C  0.02775508  0.40454338  0.49356352     0.01600
C1308       C  0.04846334  0.37461504  0.49956146    -0.00700
C1309       C  0.02811727  0.34333110  0.00428300    -0.12500
C1310       C  0.99153224  0.34107761  0.00323056     0.01500
H1311       H  0.97608177  0.42586833  0.48956900     0.14500
H1312       H  0.04309527  0.32046130  0.01065104     0.14500
C1313       C  0.97593235  0.30784390  0.00968275     0.36100
C1314       C  0.04290775  0.43819400  0.48783074     0.36000
N1315       N  0.96343205  0.28112682  0.01458429    -0.44200
N1316       N  0.05503311  0.46514113  0.48313673    -0.44200
C1317       C  0.95975527  0.35330334  0.77350524    -0.00600
C1318       C  0.97829951  0.32472550  0.76029765    -0.12500
C1319       C  0.01460610  0.32333490  0.76062042     0.01600
C1320       C  0.03316671  0.35069700  0.77508526    -0.00700
C1321       C  0.01450425  0.37734961  0.79103572    -0.12500
C1322       C  0.97811604  0.37897300  0.79029290     0.01500
H1323       H  0.96459578  0.30456717  0.74754027     0.14500
H1324       H  0.02847258  0.39816007  0.80272722     0.14500
C1325       C  0.96056622  0.40780418  0.80613372     0.36100
C1326       C  0.03175463  0.29547767  0.74311432     0.36000
N1327       N  0.94658425  0.43096258  0.81882806    -0.44200
N1328       N  0.04539507  0.27329029  0.72888464    -0.44200
C1329       C  0.83470988  0.32806192  0.84612225    -0.00600
C1330       C  0.86720991  0.33407838  0.85963666    -0.12500
C1331       C  0.87075813  0.33527235  0.89125591     0.01600
C1332       C  0.84148222  0.32948925  0.90994941    -0.00700
C1333       C  0.80970764  0.32047165  0.89631592    -0.12500
C1334       C  0.80607906  0.31980956  0.86469496     0.01500
H1335       H  0.88945219  0.34048118  0.84549127     0.14500
H1336       H  0.78711326  0.31552755  0.91052323     0.14500
C1337       C  0.77281988  0.31069355  0.85195394     0.36100
C1338       C  0.90345864  0.34673593  0.90376339     0.36000
N1339       N  0.74612674  0.30315245  0.84192424    -0.44200
N1340       N  0.92949604  0.35633687  0.91381522    -0.44200
C1341       C  0.88250614  0.33340463  0.66126320    -0.00600
C1342       C  0.85511853  0.31902989  0.64431424    -0.12500
C1343       C  0.85407830  0.32226150  0.61262479     0.01600
C1344       C  0.88039714  0.34090082  0.59751162    -0.00700
C1345       C  0.90940619  0.35212987  0.61408358    -0.12500
C1346       C  0.91096353  0.34784802  0.64552661     0.01500
H1347       H  0.83337003  0.30729617  0.65595269     0.14500
H1348       H  0.93043931  0.36522270  0.60257211     0.14500
C1349       C  0.94168309  0.35919166  0.66136160     0.36100
C1350       C  0.82453863  0.30819795  0.59669608     0.36000
N1351       N  0.96594345  0.36793746  0.67476518    -0.44200
N1352       N  0.80079702  0.29639873  0.58433933    -0.44200
C1353       C  0.17851030  0.55889938  0.94185746    -0.00600
C1354       C  0.19185673  0.52984128  0.92518966    -0.12500
C1355       C  0.18645655  0.49581510  0.93497735     0.01600
C1356       C  0.16788026  0.49053366  0.96239882    -0.00700
C1357       C  0.15622611  0.51984241  0.97972061    -0.12500
C1358       C  0.16156659  0.55362784  0.96994071     0.01500
H1359       H  0.20415830  0.53345618  0.90324258     0.14500
H1360       H  0.14307411  0.51656817  0.00133704     0.14500
C1361       C  0.14822760  0.58225849  0.98893050     0.36100
C1362       C  0.19904199  0.46716581  0.91560754     0.36000
N1363       N  0.13756521  0.60492369  0.00441977    -0.44200
N1364       N  0.20910485  0.44431916  0.89996512    -0.44200
C1365       C  0.14218989  0.54517213  0.83584610    -0.00600
C1366       C  0.17400990  0.52801331  0.82955693    -0.12500
C1367       C  0.17517743  0.49445781  0.81599976     0.01600
C1368       C  0.14394842  0.47756921  0.80768492    -0.00700
C1369       C  0.11204120  0.49503419  0.81347108    -0.12500
C1370       C  0.11092589  0.52829723  0.82797568     0.01500
H1371       H  0.19813718  0.54059772  0.83592904     0.14500
H1372       H  0.08796480  0.48257193  0.80684076     0.14500
C1373       C  0.07753670  0.54496873  0.83387742     0.36100
C1374       C  0.20897067  0.47861715  0.80998697     0.36000
N1375       N  0.05079906  0.55837890  0.83867103    -0.44200
N1376       N  0.23609157  0.46599903  0.80525002    -0.44200
C1377       C  0.12116091  0.67864848  0.54339179    -0.00600
C1378       C  0.09061589  0.66856093  0.52859743    -0.12500
C1379       C  0.08543024  0.67257459  0.99754517     0.01600
C1380       C  0.11282132  0.68634876  0.97990845    -0.00700
C1381       C  0.14231917  0.69937223  0.99496312    -0.12500
C1382       C  0.14720333  0.69597938  0.52692754     0.01500
H1383       H  0.07028486  0.65570974  0.54127878     0.14500
H1384       H  0.16354939  0.71009583  0.98187592     0.14500
C1385       C  0.17937101  0.70644393  0.54103865     0.36100
C1386       C  0.05320477  0.66121573  0.98401826     0.36000
N1387       N  0.20518107  0.71467077  0.55237340    -0.44200
N1388       N  0.02740437  0.65217149  0.97313547    -0.44200
C1389       C  0.15700645  0.67756743  0.73033548    -0.00600
C1390       C  0.18896314  0.68438914  0.74459073    -0.12500
C1391       C  0.19120715  0.68802971  0.77615178     0.01600
C1392       C  0.16088485  0.68575407  0.79420805    -0.00700
C1393       C  0.12860781  0.68085113  0.77997065    -0.12500
C1394       C  0.12647818  0.67619768  0.74834409     0.01500
H1395       H  0.21265490  0.68578387  0.73104858     0.14500
H1396       H  0.10524487  0.67821321  0.79375722     0.14500
C1397       C  0.09334193  0.66686926  0.73540979     0.36100
C1398       C  0.22502923  0.69340210  0.78944519     0.36000
N1399       N  0.06689374  0.65904177  0.72502679    -0.44200
N1400       N  0.25210275  0.69752504  0.80017933    -0.44200
C1401       C  0.16336170  0.53024958  0.67702987    -0.00600
C1402       C  0.15741605  0.49985164  0.65937608    -0.12500
C1403       C  0.16484251  0.46697210  0.67050498     0.01600
C1404       C  0.17828917  0.46395088  0.69997151    -0.00700
C1405       C  0.18629731  0.49422211  0.71700255    -0.12500
C1406       C  0.17859561  0.52727291  0.70605913     0.01500
H1407       H  0.14716006  0.50161669  0.63661884     0.14500
H1408       H  0.19575587  0.49209599  0.74000372     0.14500
C1409       C  0.18519335  0.55719986  0.72590384     0.36100
C1410       C  0.15755106  0.43673563  0.65141094     0.36000
N1411       N  0.19051226  0.58108501  0.74185275    -0.44200
N1412       N  0.15204808  0.41279727  0.63565948    -0.44200
C1413       C  0.21464692  0.54558531  0.58329577    -0.00600
C1414       C  0.21940300  0.51666717  0.60214616    -0.12500
C1415       C  0.22165658  0.48226203  0.58983634     0.01600
C1416       C  0.21908501  0.47630151  0.55826448    -0.00700
C1417       C  0.21975693  0.50550195  0.53936611    -0.12500
C1418       C  0.21757691  0.53989648  0.55165975     0.01500
H1419       H  0.21902981  0.52065263  0.62655669     0.14500
H1420       H  0.21960436  0.50148135  0.51498192     0.14500
C1421       C  0.21906210  0.56907986  0.53162398     0.36100
C1422       C  0.22742372  0.45345820  0.60974529     0.36000
N1423       N  0.22117912  0.59268372  0.51581228    -0.44200
N1424       N  0.23303244  0.43033496  0.62549311    -0.44200
C1425       C  0.86811932  0.53475866  0.90925475    -0.00600
C1426       C  0.85846534  0.50276251  0.89566070    -0.12500
C1427       C  0.85632888  0.47241521  0.91285236     0.01600
C1428       C  0.86335405  0.47414201  0.94439032    -0.00700
C1429       C  0.87621730  0.50558834  0.95698779    -0.12500
C1430       C  0.87895322  0.53550088  0.93964652     0.01500
H1431       H  0.85082622  0.50186789  0.87204678     0.14500
H1432       H  0.88316021  0.50733341  0.98077518     0.14500
C1433       C  0.89369217  0.56655331  0.95333668     0.36100
C1434       C  0.84689679  0.44012197  0.89750463     0.36000
N1435       N  0.90651561  0.59098326  0.96423762    -0.44200
N1436       N  0.83966696  0.41415558  0.88513611    -0.44200
C1437       C  0.03134852  0.67111032  0.86753106    -0.00600
C1438       C  0.01745332  0.64891962  0.84499126    -0.12500
C1439       C  0.98156259  0.64569159  0.84197814     0.01600
C1440       C  0.95911253  0.66419177  0.86238022    -0.00700
C1441       C  0.97278634  0.68859170  0.88319847    -0.12500
C1442       C  0.00878225  0.69234811  0.88585550     0.01500
H1443       H  0.03477454  0.63327174  0.83026945     0.14500
H1444       H  0.95536785  0.70349558  0.89839315     0.14500
C1445       C  0.02177196  0.71616389  0.90898313     0.36100
C1446       C  0.96832445  0.62393178  0.81744217     0.36000
N1447       N  0.03230686  0.73533057  0.92740094    -0.44200
N1448       N  0.95752347  0.60694808  0.79760022    -0.44200
C1449       C  0.80698650  0.54518902  0.81468910    -0.00600
C1450       C  0.79413680  0.51650881  0.83037081    -0.12500
C1451       C  0.80287048  0.48212331  0.82101329     0.01600
C1452       C  0.82628898  0.47603849  0.79619875    -0.00700
C1453       C  0.83614119  0.50463081  0.77889919    -0.12500
C1454       C  0.82580577  0.53867777  0.78717237     0.01500
H1455       H  0.77884094  0.52088056  0.85094671     0.14500
H1456       H  0.85166683  0.50047797  0.75842096     0.14500
C1457       C  0.83636374  0.56629458  0.76733116     0.36100
C1458       C  0.78702621  0.45405071  0.83734041     0.36000
N1459       N  0.84504016  0.58817922  0.75133713    -0.44200
N1460       N  0.77365499  0.43172000  0.85014422    -0.44200
C1461       C  0.81868168  0.52686052  0.66932330    -0.00600
C1462       C  0.83322511  0.49638636  0.65569124    -0.12500
C1463       C  0.82798525  0.46310332  0.66753595     0.01600
C1464       C  0.80870203  0.45870108  0.69491161    -0.00700
C1465       C  0.79233569  0.48885511  0.70786447    -0.12500
C1466       C  0.79636296  0.52237905  0.69501949     0.01500
H1467       H  0.84882803  0.49831476  0.63513512     0.14500
H1468       H  0.77740949  0.48657053  0.72875607     0.14500
C1469       C  0.77673968  0.55134188  0.70853459     0.36100
C1470       C  0.84335894  0.43383113  0.65070685     0.36000
N1471       N  0.76053270  0.57433791  0.71923425    -0.44200
N1472       N  0.85559607  0.41071071  0.63672243    -0.44200
C1473       C  0.03163753  0.63580155  0.63712604    -0.00600
C1474       C  0.01433809  0.60333642  0.63601608    -0.12500
C1475       C  0.97760609  0.60115519  0.63447692     0.01600
C1476       C  0.95668234  0.63200024  0.63337282    -0.00700
C1477       C  0.97387970  0.66432062  0.63623064    -0.12500
C1478       C  0.01041975  0.66651504  0.63833723     0.01500
H1479       H  0.02961174  0.57926316  0.63571382     0.14500
H1480       H  0.95869978  0.68845375  0.63627179     0.14500
C1481       C  0.02510674  0.70102172  0.64130796     0.36100
C1482       C  0.96240960  0.56675071  0.63366988     0.36000
N1483       N  0.03670768  0.72876558  0.64379472    -0.44200
N1484       N  0.95030696  0.53912998  0.63324777    -0.44200
C1485       C  0.83255664  0.68023958  0.71447052    -0.00600
C1486       C  0.80593333  0.67078949  0.73463571    -0.12500
C1487       C  0.81110368  0.67196338  0.76604793     0.01600
C1488       C  0.84308231  0.68357265  0.77786624    -0.00700
C1489       C  0.86871306  0.69546184  0.75814012    -0.12500
C1490       C  0.86384829  0.69411330  0.72671872     0.01500
H1491       H  0.78191237  0.66004842  0.72589294     0.14500
H1492       H  0.89346942  0.70388433  0.76725814     0.14500
C1493       C  0.89257464  0.70520279  0.70799755     0.36100
C1494       C  0.78480057  0.65706938  0.78522119     0.36000
N1495       N  0.91577210  0.71386532  0.69311929    -0.44200
N1496       N  0.76370413  0.64431895  0.80005929    -0.44200
C1497       C  0.86128048  0.66461754  0.52862023    -0.00600
C1498       C  0.82753521  0.67307571  0.51903795    -0.12500
C1499       C  0.82239068  0.66890129  0.98804922     0.01600
C1500       C  0.84944151  0.66858764  0.96610824    -0.00700
C1501       C  0.88420132  0.66625028  0.97586641    -0.12500
C1502       C  0.88897276  0.66441090  0.50745859     0.01500
H1503       H  0.80623200  0.67435667  0.53548749     0.14500
H1504       H  0.90529203  0.66640966  0.95925345     0.14500
C1505       C  0.92411672  0.65623436  0.51635360     0.36100
C1506       C  0.78622719  0.67276850  0.97992128     0.36000
N1507       N  0.95231933  0.64944159  0.52331091    -0.44200
N1508       N  0.75723649  0.67559891  0.97340942    -0.44200
C1509       C  0.78166967  0.54415007  0.56887530    -0.00600
C1510       C  0.77757123  0.51477281  0.58715104    -0.12500
C1511       C  0.78395476  0.48075545  0.57523976     0.01600
C1512       C  0.79396272  0.47585867  0.54457985    -0.00700
C1513       C  0.79281135  0.50471935  0.52543248    -0.12500
C1514       C  0.78681646  0.53868939  0.53733235     0.01500
H1515       H  0.77312409  0.51850223  0.61137896     0.14500
H1516       H  0.79951098  0.50115429  0.50155166     0.14500
C1517       C  0.78869710  0.56787801  0.51721057     0.36100
C1518       C  0.78056446  0.45128432  0.59477181     0.36000
N1519       N  0.78994416  0.59131888  0.50114326    -0.44200
N1520       N  0.77722574  0.42741870  0.61011493    -0.44200
C1521       C  0.75304149  0.28819373  0.75341562    -0.00600
C1522       C  0.72220153  0.29969790  0.76826089    -0.12500
C1523       C  0.69959327  0.27582145  0.78206379     0.01600
C1524       C  0.70781027  0.23951190  0.78144967    -0.00700
C1525       C  0.73736520  0.22796060  0.76492635    -0.12500
C1526       C  0.75953292  0.25158398  0.75077552     0.01500
H1527       H  0.71697080  0.32757363  0.77105525     0.14500
H1528       H  0.74339185  0.20014606  0.76316620     0.14500
C1529       C  0.78952554  0.23736668  0.73443651     0.36100
C1530       C  0.66958397  0.28964274  0.79856250     0.36000
N1531       N  0.81362189  0.22593988  0.72147873    -0.44200
N1532       N  0.64555331  0.30074554  0.81182271    -0.44200
C1533       C  0.71355661  0.26079450  0.54553070    -0.00600
C1534       C  0.70751689  0.29717906  0.54692074    -0.12500
C1535       C  0.73185626  0.32060583  0.53503059     0.01600
C1536       C  0.76310276  0.30768073  0.52117100    -0.00700
C1537       C  0.76825833  0.27126448  0.51874094    -0.12500
C1538       C  0.74426877  0.24798747  0.53061970     0.01500
H1539       H  0.68389334  0.30746055  0.55777894     0.14500
H1540       H  0.79244362  0.26055075  0.01275175     0.14500
C1541       C  0.75187289  0.21104877  0.52605712     0.36100
C1542       C  0.72425513  0.35763669  0.53801119     0.36000
N1543       N  0.76231785  0.18103083  0.02933350    -0.44200
N1544       N  0.71820624  0.38735021  0.54032787    -0.44200
C1545       C  0.67228916  0.15843628  0.90098133    -0.00600
C1546       C  0.67423445  0.18939644  0.91889319    -0.12500
C1547       C  0.67024982  0.18885650  0.95054059     0.01600
C1548       C  0.66387838  0.15691715  0.96480656    -0.00700
C1549       C  0.66279374  0.12589668  0.94720650    -0.12500
C1550       C  0.66720133  0.12628082  0.91560725     0.01500
H1551       H  0.67767840  0.21429914  0.90804550     0.14500
H1552       H  0.65763473  0.10135608  0.95815326     0.14500
C1553       C  0.66385178  0.09353670  0.89881525     0.36100
C1554       C  0.66998581  0.22170936  0.96760701     0.36000
N1555       N  0.66112761  0.06715893  0.88556366    -0.44200
N1556       N  0.66949289  0.24802552  0.98126610    -0.44200
C1557       C  0.67071902  0.16206183  0.65296183    -0.00600
C1558       C  0.66420429  0.12648650  0.65846984    -0.12500
C1559       C  0.66468640  0.11356164  0.68797619     0.01600
C1560       C  0.67235243  0.13627645  0.71264198    -0.00700
C1561       C  0.68060032  0.17131107  0.70698477    -0.12500
C1562       C  0.67963162  0.18438124  0.67759922     0.01500
H1563       H  0.65755781  0.10886188  0.63973058     0.14500
H1564       H  0.68624200  0.18911186  0.72585455     0.14500
C1565       C  0.68822820  0.22062795  0.67350948     0.36100
C1566       C  0.65773692  0.07693603  0.69226124     0.36000
N1567       N  0.69532690  0.24970128  0.67053296    -0.44200
N1568       N  0.65245129  0.04749356  0.69550882    -0.44200
C1569       C  0.69775972  0.75315934  0.84205818    -0.00600
C1570       C  0.72329742  0.76567089  0.86181560    -0.12500
C1571       C  0.74753897  0.74318915  0.87439447     0.01600
C1572       C  0.74711957  0.70688057  0.86669535    -0.00700
C1573       C  0.72027674  0.69403864  0.84810589    -0.12500
C1574       C  0.69596682  0.71694690  0.83535659     0.01500
H1575       H  0.72439246  0.79347895  0.86750904     0.14500
H1576       H  0.71926308  0.66634317  0.84225218     0.14500
C1577       C  0.67162474  0.70319848  0.81345096     0.36100
C1578       C  0.77265836  0.75876249  0.89476996     0.36000
N1579       N  0.65236817  0.69242751  0.79555194    -0.44200
N1580       N  0.79282406  0.77143668  0.91088894    -0.44200
C1581       C  0.64406411  0.03200811  0.81661921    -0.00600
C1582       C  0.61373273  0.01937665  0.83071956    -0.12500
C1583       C  0.60772132  0.98348003  0.83307325     0.01600
C1584       C  0.63237141  0.95906115  0.82119499    -0.00700
C1585       C  0.66344343  0.97154423  0.80831384    -0.12500
C1586       C  0.66944418  0.00758118  0.80588105     0.01500
H1587       H  0.59419095  0.03774771  0.83964512     0.14500
H1588       H  0.68294481  0.95299709  0.79961990     0.14500
C1589       C  0.70104042  0.01851576  0.79108700     0.36100
C1590       C  0.57663584  0.97257535  0.84874842     0.36000
N1591       N  0.72641800  0.02717795  0.77922209    -0.44200
N1592       N  0.55178370  0.96390282  0.86142798    -0.44200
C1593       C  0.71046820  0.77141329  0.57556302    -0.00600
C1594       C  0.74678637  0.77472636  0.57274319    -0.12500
C1595       C  0.76989119  0.74887785  0.58309101     0.01600
C1596       C  0.75704114  0.71831115  0.59677724    -0.00700
C1597       C  0.72071332  0.71399935  0.59799301    -0.12500
C1598       C  0.69756008  0.74016690  0.58798692     0.01500
H1599       H  0.75732472  0.79837219  0.56333684     0.14500
H1600       H  0.71023860  0.69084890  0.60827534     0.14500
C1601       C  0.66081981  0.73544506  0.59339024     0.36100
C1602       C  0.80672825  0.75480545  0.57933789     0.36000
N1603       N  0.63140084  0.73172034  0.59801695    -0.44200
N1604       N  0.83617749  0.75990571  0.57623762    -0.44200
C1605       C  0.64708446  0.98893965  0.58039407    -0.00600
C1606       C  0.67086243  0.00487511  0.56096188    -0.12500
C1607       C  0.66721906  0.04018670  0.55363131     0.01600
C1608       C  0.63945815  0.06091416  0.56625970    -0.00700
C1609       C  0.61641357  0.04532148  0.58672110    -0.12500
C1610       C  0.62003186  0.00978685  0.59389291     0.01500
H1611       H  0.69117611  0.98914910  0.54986274     0.14500
H1612       H  0.59560999  0.06090032  0.59722321     0.14500
C1613       C  0.59571291  0.99540187  0.61531488     0.36100
C1614       C  0.69140368  0.05360026  0.53159140     0.36000
N1615       N  0.57632046  0.98386082  0.63254806    -0.44200
N1616       N  0.69769844  0.05864667  0.00253698    -0.44200
C1617       C  0.66836959  0.88958108  0.98114644    -0.00600
C1618       C  0.67741206  0.85662575  0.96823176    -0.12500
C1619       C  0.67017509  0.84819852  0.93767603     0.01600
C1620       C  0.65438855  0.87332530  0.91910510    -0.00700
C1621       C  0.64661066  0.90667314  0.93165477    -0.12500
C1622       C  0.65333750  0.91499473  0.96219803     0.01500
H1623       H  0.68765891  0.83640900  0.98262602     0.14500
H1624       H  0.63465934  0.92627187  0.91757388     0.14500
C1625       C  0.64352538  0.94961113  0.97357339     0.36100
C1626       C  0.67560306  0.81248197  0.92710322     0.36000
N1627       N  0.63538960  0.97727583  0.98261532    -0.44200
N1628       N  0.67939674  0.78352371  0.91928721    -0.44200
C1629       C  0.67420835  0.85393103  0.66769396    -0.00600
C1630       C  0.67966990  0.82036234  0.67920634    -0.12500
C1631       C  0.67820017  0.81452128  0.71040379     0.01600
C1632       C  0.67085249  0.84261652  0.73102454    -0.00700
C1633       C  0.66833608  0.87674163  0.71975490    -0.12500
C1634       C  0.66991435  0.88260802  0.68835823     0.01500
H1635       H  0.68382455  0.79818670  0.66356932     0.14500
H1636       H  0.66285712  0.89867010  0.73534069     0.14500
C1637       C  0.66376276  0.91764201  0.67791632     0.36100
C1638       C  0.68405895  0.77933285  0.72058411     0.36000
N1639       N  0.65872051  0.94567464  0.66948968    -0.44200
N1640       N  0.68886900  0.75118268  0.72881027    -0.44200
C1641       C  0.30573337  0.25452300  0.97688356    -0.00600
C1642       C  0.31337960  0.29036168  0.97497959    -0.12500
C1643       C  0.28986866  0.31643686  0.98609643     0.01600
C1644       C  0.25821245  0.30688729  0.00036971    -0.00700
C1645       C  0.25191322  0.27111669  0.00408871    -0.12500
C1646       C  0.27479359  0.24518020  0.99237362     0.01500
H1647       H  0.33695464  0.29811625  0.96336433     0.14500
H1648       H  0.22793652  0.26319123  0.01499994     0.14500
C1649       C  0.26498301  0.20919147  0.99626604     0.36100
C1650       C  0.30069690  0.35079725  0.48323882     0.36000
N1651       N  0.25649796  0.18053473  0.99942011    -0.44200
N1652       N  0.30726904  0.37977811  0.47906476    -0.44200
C1653       C  0.53733927  0.14243920  0.85919248    -0.00600
C1654       C  0.54150309  0.14356406  0.89079662    -0.12500
C1655       C  0.51267531  0.14561285  0.91042726     0.01600
C1656       C  0.47874130  0.14906287  0.89836917    -0.00700
C1657       C  0.47442600  0.14526033  0.86686678    -0.12500
C1658       C  0.50328567  0.14062738  0.84736349     0.01500
H1659       H  0.56749993  0.14349158  0.90022895     0.14500
H1660       H  0.44843800  0.14598442  0.85745728     0.14500
C1661       C  0.49707479  0.13406633  0.81549784     0.36100
C1662       C  0.51915479  0.14590189  0.94271813     0.36000
N1663       N  0.49211517  0.12767882  0.79009895    -0.44200
N1664       N  0.52439196  0.14586820  0.96855398    -0.44200
C1665       C  0.47441077  0.22848343  0.99403776    -0.00600
C1666       C  0.48035111  0.23859720  0.52548526    -0.12500
C1667       C  0.51288833  0.24737662  0.53762081     0.01600
C1668       C  0.54320186  0.24338939  0.51939353    -0.00700
C1669       C  0.53692329  0.23559384  0.98676638    -0.12500
C1670       C  0.50360749  0.23234434  0.97444790     0.01500
H1671       H  0.45769398  0.23732794  0.54031662     0.14500
H1672       H  0.55962528  0.23320071  0.97192125     0.14500
C1673       C  0.50082430  0.23049348  0.94177444     0.36100
C1674       C  0.51474905  0.25966889  0.56876019     0.36000
N1675       N  0.49892807  0.22972161  0.91555833    -0.44200
N1676       N  0.51613077  0.27082154  0.59339401    -0.44200
C1677       C  0.29190701  0.26162525  0.69812456    -0.00600
C1678       C  0.25679287  0.25298522  0.69441565    -0.12500
C1679       C  0.23034342  0.27451191  0.70645178     0.01600
C1680       C  0.23875493  0.30645666  0.72141215    -0.00700
C1681       C  0.27354356  0.31746529  0.72132222    -0.12500
C1682       C  0.30025627  0.29514516  0.71009652     0.01500
H1683       H  0.25004408  0.22768775  0.68448085     0.14500
H1684       H  0.28016358  0.34231791  0.73209968     0.14500
C1685       C  0.33585636  0.30599839  0.71382985     0.36100
C1686       C  0.19511724  0.26189024  0.70430762     0.36000
N1687       N  0.36440040  0.31470061  0.71684665    -0.44200
N1688       N  0.16715494  0.25112041  0.70247210    -0.44200
C1689       C  0.52405171  0.19031814  0.61178843    -0.00600
C1690       C  0.52112117  0.21092486  0.63883684    -0.12500
C1691       C  0.48841723  0.21954117  0.65206946     0.01600
C1692       C  0.45758077  0.20662138  0.63875497    -0.00700
C1693       C  0.46047024  0.18849979  0.61062471    -0.12500
C1694       C  0.49277377  0.18005657  0.59729500     0.01500
H1695       H  0.54444932  0.22063237  0.64968472     0.14500
H1696       H  0.43713293  0.17893748  0.59962664     0.14500
C1697       C  0.49229555  0.16070818  0.56865094     0.36100
C1698       C  0.48753077  0.24086118  0.67963312     0.36000
N1699       N  0.49159870  0.14536555  0.54564561    -0.44200
N1700       N  0.48696501  0.25814896  0.70162812    -0.44200
C1701       C  0.33502231  0.17822328  0.79424243    -0.00600
C1702       C  0.34421378  0.14660633  0.80783893    -0.12500
C1703       C  0.34626178  0.14439644  0.83947492     0.01600
C1704       C  0.33779796  0.17393908  0.85813680    -0.00700
C1705       C  0.32682990  0.20503477  0.84452251    -0.12500
C1706       C  0.32556567  0.20746237  0.81286933     0.01500
H1707       H  0.35210237  0.12417877  0.79362988     0.14500
H1708       H  0.32034257  0.22792534  0.85868750     0.14500
C1709       C  0.31469512  0.24020639  0.80006191     0.36100
C1710       C  0.36078669  0.11290159  0.85195783     0.36000
N1711       N  0.30597653  0.26640947  0.78975708    -0.44200
N1712       N  0.37287530  0.08793369  0.86205146    -0.44200
C1713       C  0.32880544  0.13678227  0.60738932    -0.00600
C1714       C  0.34067438  0.10664412  0.59124041    -0.12500
C1715       C  0.34682622  0.10732814  0.56001688     0.01600
C1716       C  0.34107465  0.13855797  0.54458489    -0.00700
C1717       C  0.32505822  0.16725299  0.55980153    -0.12500
C1718       C  0.31860046  0.16653845  0.59114564     0.01500
H1719       H  0.34764188  0.08328348  0.60341641     0.14500
H1720       H  0.31991367  0.19107488  0.54764592     0.14500
C1721       C  0.30454001  0.19766111  0.60630147     0.36100
C1722       C  0.35993551  0.07607233  0.54436011     0.36000
N1723       N  0.29304114  0.22253985  0.61838825    -0.44200
N1724       N  0.37010519  0.05099386  0.53168824    -0.44200
C1725       C  0.47856004  0.17852789  0.73451074    -0.00600
C1726       C  0.48325877  0.20020812  0.76050517    -0.12500
C1727       C  0.51658342  0.20791813  0.77112020     0.01600
C1728       C  0.54605482  0.19426155  0.75522833    -0.00700
C1729       C  0.54127092  0.17684146  0.72710092    -0.12500
C1730       C  0.50822770  0.16777462  0.71718488     0.01500
H1731       H  0.46084899  0.21016945  0.77332944     0.14500
H1732       H  0.56368279  0.16716063  0.71407060     0.14500
C1733       C  0.50623075  0.14669118  0.68951631     0.36100
C1734       C  0.51940206  0.22775508  0.79935415     0.36000
N1735       N  0.50483016  0.12985217  0.66732591    -0.44200
N1736       N  0.52156560  0.24358639  0.82202135    -0.44200
C1737       C  0.29205527  0.76548008  0.93115227    -0.00600
C1738       C  0.30075831  0.73491181  0.91404503    -0.12500
C1739       C  0.27496339  0.71147710  0.90422094     0.01600
C1740       C  0.23958818  0.71855033  0.91135515    -0.00700
C1741       C  0.23107072  0.74812620  0.92957120    -0.12500
C1742       C  0.25671620  0.77120539  0.93980618     0.01500
H1743       H  0.32764411  0.72990193  0.90734437     0.14500
H1744       H  0.20405315  0.75328259  0.93584922     0.14500
C1745       C  0.24574366  0.80017322  0.95956062     0.36100
C1746       C  0.28531440  0.68155711  0.88540047     0.36000
N1747       N  0.23686484  0.82327229  0.97545791    -0.44200
N1748       N  0.29367881  0.65759338  0.87030043    -0.44200
C1749       C  0.48374270  0.84055052  0.98568964    -0.00600
C1750       C  0.48549349  0.82270637  0.50989276    -0.12500
C1751       C  0.51773234  0.81738342  0.52417499     0.01600
C1752       C  0.54831404  0.83222058  0.51217487    -0.00700
C1753       C  0.54562682  0.85036824  0.48482671    -0.12500
C1754       C  0.51519934  0.85151121  0.97194577     0.01500
H1755       H  0.46240337  0.81124998  0.51967553     0.14500
H1756       H  0.57064990  0.85504146  0.97539972     0.14500
C1757       C  0.51597224  0.87049401  0.94401805     0.36100
C1758       C  0.51822791  0.79778452  0.55172678     0.36000
N1759       N  0.51673668  0.88591134  0.92176220    -0.44200
N1760       N  0.51860900  0.78197429  0.57377011    -0.44200
C1761       C  0.37518377  0.97024464  0.94110172    -0.00600
C1762       C  0.40672067  0.98779340  0.94592388    -0.12500
C1763       C  0.40805119  0.02453498  0.94921437     0.01600
C1764       C  0.37718795  0.04530332  0.94744986    -0.00700
C1765       C  0.34570918  0.02778542  0.94227269    -0.12500
C1766       C  0.34432824  0.99103260  0.93926105     0.01500
H1767       H  0.43073357  0.97269598  0.94735524     0.14500
H1768       H  0.32166957  0.04286852  0.94096098     0.14500
C1769       C  0.31053731  0.97577995  0.93443691     0.36100
C1770       C  0.44172194  0.03981787  0.95460095     0.36000
N1771       N  0.28337215  0.96370558  0.93065952    -0.44200
N1772       N  0.46870405  0.05201535  0.95903607    -0.44200
C1773       C  0.46369585  0.78208904  0.89237022    -0.00600
C1774       C  0.49307773  0.78066602  0.91110401    -0.12500
C1775       C  0.52673054  0.78037379  0.89851014     0.01600
C1776       C  0.53120025  0.78093732  0.86673575    -0.00700
C1777       C  0.50193091  0.77604423  0.84816685    -0.12500
C1778       C  0.46821164  0.77676505  0.86084786     0.01500
H1779       H  0.48991418  0.78380940  0.93551840     0.14500
H1780       H  0.50506023  0.77535593  0.82367429     0.14500
C1781       C  0.43848694  0.77305309  0.84132827     0.36100
C1782       C  0.55625097  0.78215159  0.91851579     0.36000
N1783       N  0.41445729  0.76934270  0.82598672    -0.44200
N1784       N  0.58001930  0.78338437  0.93443096    -0.44200
C1785       C  0.28717886  0.76639766  0.67229601    -0.00600
C1786       C  0.25766683  0.77740281  0.65594905    -0.12500
C1787       C  0.23475323  0.75360212  0.64243056     0.01600
C1788       C  0.24017299  0.71734428  0.64538650    -0.00700
C1789       C  0.27002239  0.70593544  0.66094930    -0.12500
C1790       C  0.29349920  0.72998984  0.67419128     0.01500
H1791       H  0.25263552  0.80506030  0.65285197     0.14500
H1792       H  0.27428186  0.67813654  0.66393670     0.14500
C1793       C  0.32300577  0.71653936  0.69036655     0.36100
C1794       C  0.20609397  0.76724992  0.62512890     0.36000
N1795       N  0.34660440  0.70561957  0.70338725    -0.44200
N1796       N  0.18319788  0.77814372  0.61119474    -0.44200
C1797       C  0.45161276  0.81669449  0.74670160    -0.00600
C1798       C  0.48210648  0.80701647  0.73044138    -0.12500
C1799       C  0.51539331  0.81372834  0.74242622     0.01600
C1800       C  0.51870522  0.83117938  0.77116737    -0.00700
C1801       C  0.48822075  0.83889276  0.78788230    -0.12500
C1802       C  0.45534529  0.83158504  0.77634877     0.01500
H1803       H  0.48005099  0.79607725  0.70754980     0.14500
H1804       H  0.48986446  0.85066133  0.81052380     0.14500
C1805       C  0.42593244  0.84147590  0.79542540     0.36100
C1806       C  0.54540421  0.80281487  0.72440811     0.36000
N1807       N  0.40286257  0.84980558  0.81114435    -0.44200
N1808       N  0.56941628  0.79375196  0.71003853    -0.44200
C1809       C  0.35406836  0.97707060  0.69558933    -0.00600
C1810       C  0.38510950  0.99281305  0.70533933    -0.12500
C1811       C  0.38730932  0.02887817  0.71020078     0.01600
C1812       C  0.35799987  0.05039148  0.70490083    -0.00700
C1813       C  0.32651845  0.03456012  0.69620022    -0.12500
C1814       C  0.32430515  0.99828302  0.69154269     0.01500
H1815       H  0.40796560  0.97683202  0.70963708     0.14500
H1816       H  0.30372665  0.05061418  0.69190068     0.14500
C1817       C  0.29157267  0.98391061  0.68166744     0.36100
C1818       C  0.42009874  0.04268240  0.72062744     0.36000
N1819       N  0.26530870  0.97245825  0.67376140    -0.44200
N1820       N  0.44643307  0.05356604  0.72895632    -0.44200
C1821       C  0.32144942  0.88193110  0.78470680    -0.00600
C1822       C  0.31649205  0.84957876  0.79838685    -0.12500
C1823       C  0.32373033  0.84565123  0.82927710     0.01600
C1824       C  0.33596946  0.87454467  0.84659914    -0.00700
C1825       C  0.33777716  0.90743237  0.83361052    -0.12500
C1826       C  0.33025004  0.91145705  0.80301051     0.01500
H1827       H  0.31054061  0.82664770  0.78439202     0.14500
H1828       H  0.34638539  0.92979597  0.84717601     0.14500
C1829       C  0.33424629  0.94573406  0.79036557     0.36100
C1830       C  0.32246116  0.81106113  0.84169389     0.36000
N1831       N  0.33762702  0.97312658  0.78020031    -0.44200
N1832       N  0.32169540  0.78329874  0.85155596    -0.44200
C1833       C  0.32889027  0.85427713  0.53224097    -0.00600
C1834       C  0.32131459  0.82329425  0.54709027    -0.12500
C1835       C  0.31952561  0.82264170  0.57857021     0.01600
C1836       C  0.32465784  0.85376985  0.59590771    -0.00700
C1837       C  0.32777784  0.88566578  0.58101856    -0.12500
C1838       C  0.33012188  0.88615705  0.54921672     0.01500
H1839       H  0.31890913  0.79893374  0.53410060     0.14500
H1840       H  0.33132751  0.90970360  0.59418654     0.14500
C1841       C  0.33672999  0.91907638  0.53497759     0.36100
C1842       C  0.31453225  0.78904116  0.59213758     0.36000
N1843       N  0.34197062  0.94544471  0.52351974    -0.44200
N1844       N  0.31099949  0.76161790  0.60217259    -0.44200
C1845       C  0.53267266  0.87615525  0.61889340    -0.00600
C1846       C  0.50190282  0.87739827  0.60208961    -0.12500
C1847       C  0.46962110  0.87388637  0.61630705     0.01600
C1848       C  0.46793994  0.87016913  0.64804504    -0.00700
C1849       C  0.49860267  0.87122785  0.66507433    -0.12500
C1850       C  0.53094908  0.87361277  0.65075462     0.01500
H1851       H  0.50314813  0.87911230  0.57755058     0.14500
H1852       H  0.49743229  0.86854018  0.68952119     0.14500
C1853       C  0.56178357  0.87260832  0.66924045     0.36100
C1854       C  0.43888279  0.87366931  0.59769704     0.36000
N1855       N  0.58632345  0.87152047  0.68421693    -0.44200
N1856       N  0.41441426  0.87331484  0.58259071    -0.44200
loop_ 
_geom_bond_atom_site_label_1 
_geom_bond_atom_site_label_2 
_geom_bond_distance 
_geom_bond_site_symmetry_2 
_ccdc_geom_bond_type 
O1           C16   1.256       .  A
O1           Al9   1.880       .  S
C2           O12   1.267       .  A
C2            O3   1.262       .  A
C2          C893   1.472       .  S
O3           Al5   1.910       .  S
O4            C6   1.248       .  A
O4           Al5   1.853       .  S
Al5          O13   1.865       .  S
Al5          O15   1.922       .  S
Al5          O14   1.758       .  S
C6           O19   1.278       .  A
C6          C869   1.498       .  S
O7           C17   1.271       .  A
O7           Al9   1.930       .  S
O8           C21   1.268       .  A
O8          Al18   1.903       .  S
Al9          O22   1.925       .  S
Al9          O19   1.996       .  S
Al9          O14   1.778       .  S
O10          C17   1.263       .  A
O10         Al18   1.895       .  S
O11          C20   1.268       .  A
O11         Al18   1.943       .  S
O12         Al18   1.923       .  S
O13          C20   1.257       .  A
O14         Al18   1.767       .  S
O15          C16   1.261       .  A
C16         C920   1.469       .  S
C17         C857   1.502       .  S
C20         C881   1.471       .  S
C21          O22   1.271       .  A
C21         C908   1.471       .  S
O23          C38   1.266       .  A
O23         Al31   1.910       .  S
C24          O34   1.269       .  A
C24          O25   1.257       .  A
C24         C896   1.470       .  S
O25         Al27   1.881       .  S
O26          C28   1.267       .  A
O26         Al27   1.928       .  S
Al27         O35   1.935       .  S
Al27         O37   1.889       .  S
Al27         O36   1.781       .  S
C28          O41   1.263       .  A
C28         C809   1.488       .  S
O29          C39   1.260       .  A
O29         Al31   1.914       .  S
O30          C43   1.270       .  A
O30         Al40   1.942       .  S
Al31         O44   1.903       .  S
Al31         O41   1.902       .  S
Al31         O36   1.782       .  S
O32          C39   1.261       .  A
O32         Al40   1.904       .  S
O33          C42   1.263       .  A
O33         Al40   1.909       .  S
O34         Al40   1.940       .  S
O35          C42   1.266       .  A
O36         Al40   1.771       .  S
O37          C38   1.260       .  A
C38        C1833   1.472       .  S
C39         C845   1.477       .  S
C42         C833   1.502       .  S
C43          O44   1.265       .  A
C43         C821   1.503       .  S
O45          C60   1.257       .  A
O45         Al53   1.877       .  S
C46          O56   1.266       .  A
C46          O47   1.264       .  A
C46         C785   1.477       .  S
O47         Al49   1.910       .  S
O48          C50   1.255       .  A
O48         Al49   1.868       .  S
Al49         O57   1.885       .  S
Al49         O59   1.923       .  S
Al49         O58   1.756       .  S
C50          O63   1.274       .  A
C50         C764   1.496       .  S
O51          C61   1.263       .  A
O51         Al53   1.910       .  S
O52          C65   1.264       .  A
O52         Al62   1.886       .  S
Al53         O66   1.950       .  S
Al53         O63   1.982       .  S
Al53         O58   1.779       .  S
O54          C61   1.262       .  A
O54         Al62   1.886       .  S
O55          C64   1.264       .  A
O55         Al62   1.915       .  S
O56         Al62   1.913       .  S
O57          C64   1.262       .  A
O58         Al62   1.766       .  S
O59          C60   1.263       .  A
C60         C797   1.482       .  S
C61         C749   1.477       .  S
C64         C884   1.473       .  S
C65          O66   1.274       .  A
C65         C773   1.478       .  S
O67          C82   1.254       .  A
O67         Al75   1.904       .  S
C68          O78   1.262       .  A
C68         O997   1.257   1_554  A
C68         C788   1.467       .  S
O69         C996   1.257       .  A
O69         Al71   1.885       .  S
O70          C72   1.274       .  A
O70         Al71   1.937       .  S
Al71         O79   1.916       .  S
Al71         O81   1.922       .  S
Al71         O80   1.779       .  S
C72          O85   1.272       .  A
C72         C713   1.493       .  S
O73          C83   1.249       .  A
O73         Al75   1.893       .  S
O74          C87   1.270       .  A
O74         Al84   1.909       .  S
Al75         O88   1.902       .  S
Al75         O85   1.912       .  S
Al75         O80   1.788       .  S
O76          C83   1.259       .  A
O76         Al84   1.927       .  S
O77          C86   1.257       .  A
O77         Al84   1.899       .  S
O78       Al1012   1.895   1_554  S
O79          C86   1.261       .  A
O80         Al84   1.778       .  S
O81          C82   1.260       .  A
C82         C776   1.481       .  S
C83         C737   1.486       .  S
Al84       O1006   1.900       .  S
C86         C836   1.505       .  S
C87          O88   1.273       .  A
C87         C728   1.472       .  S
O89         C104   1.255       .  A
O89         Al97   1.881       .  S
C90         O100   1.274       .  A
C90          O91   1.263       .  A
C90        C1617   1.490   1_554  S
O91         Al93   1.914       .  S
O92          C94   1.254       .  A
O92         Al93   1.860       .  S
Al93        O101   1.887       .  S
Al93        O103   1.903       .  S
Al93        O102   1.769       .  S
C94         O107   1.274       .  A
C94         C824   1.493       .  S
O95         C105   1.269       .  A
O95         Al97   1.926       .  S
O96         C109   1.276       .  A
O96        Al106   1.929       .  S
Al97        O110   1.916       .  S
Al97        O107   1.974       .  S
Al97        O102   1.770       .  S
O98         C105   1.266       .  A
O98        Al106   1.935       .  S
O99         C108   1.272       .  A
O99        Al106   1.966       .  S
O100       Al106   1.939       .  S
O101        C108   1.256       .  A
O102       Al106   1.772       .  S
O103        C104   1.259       .  A
C104        C917   1.468       .  S
C105        C665   1.506       .  S
C108        C677   1.484       .  S
C109        O110   1.271       .  A
C109        C701   1.484       .  S
O111        C126   1.269       .  A
O111       Al119   1.932       .  S
C112        O122   1.268       .  A
C112        O113   1.262       .  A
C112        C692   1.480       .  S
O113       Al115   1.906       .  S
O114        C116   1.262       .  A
O114       Al115   1.907       .  S
Al115       O123   1.915       .  S
Al115       O125   1.898       .  S
Al115       O124   1.777       .  S
C116        O129   1.259       .  A
C116        C641   1.471       .  S
O117        C127   1.263       .  A
O117       Al119   1.927       .  S
O118        C131   1.271       .  A
O118       Al128   1.938       .  S
Al119       O132   1.890       .  S
Al119       O129   1.894       .  S
Al119       O124   1.787       .  S
O120        C127   1.262       .  A
O120       Al128   1.902       .  S
O121        C130   1.267       .  A
O121       Al128   1.922       .  S
O122       Al128   1.935       .  S
O123        C130   1.262       .  A
O124       Al128   1.771       .  S
O125        C126   1.262       .  A
C126        C704   1.487       .  S
C127        C848   1.478       .  S
C130        C656   1.499       .  S
C131        O132   1.260       .  A
C131        C872   1.498       .  S
O133        C148   1.276       .  A
O133       Al141   1.953       .  S
C134       O1072   1.271       .  A
C134       O1063   1.266       .  A
C134        C620   1.485       .  S
O135       C1062   1.263   1_554  A
O135       Al137   1.893       .  S
O136        C138   1.257       .  A
O136       Al137   1.902       .  S
Al137       O145   1.910       .  S
Al137       O147   1.865       .  S
Al137       O146   1.774       .  S
C138        O151   1.263       .  A
C138        C605   1.491       .  S
O139        C149   1.268       .  A
O139       Al141   1.943       .  S
O140        C153   1.265       .  A
O140       Al150   1.921       .  S
Al141       O154   1.901       .  S
Al141       O151   1.925       .  S
Al141       O146   1.778       .  S
O142        C149   1.261       .  A
O142       Al150   1.890       .  S
O143        C152   1.264       .  A
O143       Al150   1.925       .  S
O144       C1062   1.271   1_554  A
O144       Al150   1.943       .  S
O145        C152   1.260       .  A
O146       Al150   1.762       .  S
O147        C148   1.261       .  A
C148        C629   1.481       .  S
C149        C740   1.484       .  S
C152        C680   1.485       .  S
C153        O154   1.262       .  A
C153        C761   1.497       .  S
O155        C170   1.268       .  A
O155       Al163   1.936       .  S
C156        O166   1.262       .  A
C156        O157   1.257       .  A
C156        C632   1.470       .  S
O157       Al159   1.883       .  S
O158        C160   1.277       .  A
O158       Al159   1.960       .  S
Al159       O167   1.977       .  S
Al159       O169   1.904       .  S
Al159       O168   1.764       .  S
C160        O173   1.263       .  A
C160        C596   1.493       .  S
O161        C171   1.265       .  A
O161       Al163   1.945       .  S
O162        C175   1.268       .  A
O162       Al172   1.937       .  S
Al163       O176   1.875       .  S
Al163       O173   1.892       .  S
Al163       O168   1.778       .  S
O164        C171   1.251       .  A
O164       Al172   1.869       .  S
O165        C174   1.255       .  A
O165       Al172   1.863       .  S
O166       Al172   1.918       .  S
O167        C174   1.275       .  A
O168       Al172   1.761       .  S
O169        C170   1.265       .  A
C170        C617   1.485       .  S
C171        C800   1.481       .  S
C174        C653   1.501       .  S
C175        O176   1.263       .  A
C175        C725   1.472       .  S
O177        C192   1.276       .  A
O177       Al185   1.949       .  S
C178        O188   1.272       .  A
C178        O179   1.255       .  A
C178        C569   1.471       .  S
O179       Al181   1.860       .  S
O180        C182   1.264       .  A
O180       Al181   1.932       .  S
Al181       O189   1.933       .  S
Al181       O191   1.863       .  S
Al181       O190   1.783       .  S
C182        O195   1.265       .  A
C182        C668   1.507       .  S
O183        C193   1.266       .  A
O183       Al185   1.942       .  S
O184        C197   1.275       .  A
O184       Al194   1.961       .  S
Al185       O198   1.916       .  S
Al185       O195   1.932       .  S
Al185       O190   1.785       .  S
O186        C193   1.256       .  A
O186       Al194   1.879       .  S
O187        C196   1.266       .  A
O187       Al194   1.930       .  S
O188       Al194   1.958       .  S
O189        C196   1.266       .  A
O190       Al194   1.774       .  S
O191        C192   1.259       .  A
C192        C557   1.490       .  S
C193        C581   1.477       .  S
C196        C548   1.512       .  S
C197        O198   1.265       .  A
C197        C533   1.520       .  S
O199        C214   1.273       .  A
O199       Al207   1.941       .  S
C200        O210   1.265       .  A
C200        O201   1.263       .  A
C200        C560   1.468       .  S
O201       Al203   1.903       .  S
O202        C204   1.263       .  A
O202       Al203   1.902       .  S
Al203       O211   1.924       .  S
Al203       O213   1.895       .  S
Al203       O212   1.768       .  S
C204        O217   1.267       .  A
C204        C644   1.484       .  S
O205        C215   1.268       .  A
O205       Al207   1.963       .  S
O206        C219   1.269       .  A
O206       Al216   1.947       .  S
Al207       O220   1.878       .  S
Al207       O217   1.919       .  S
Al207       O212   1.776       .  S
O208        C215   1.248       .  A
O208       Al216   1.859       .  S
O209        C218   1.258       .  A
O209       Al216   1.875       .  S
O210       Al216   1.922       .  S
O211        C218   1.263       .  A
O212       Al216   1.757       .  S
O213        C214   1.265       .  A
C214        C572   1.479       .  S
C215        C521   1.488       .  S
C218        C512   1.467       .  S
C219        O220   1.261       .  A
C219        C497   1.479       .  S
O221        C236   1.254       .  A
O221       Al229   1.860       .  S
C222        O232   1.268       .  A
C222        O223   1.268       .  A
C222        C449   1.485       .  S
O223       Al225   1.926       .  S
O224        C226   1.262       .  A
O224       Al225   1.909       .  S
Al225       O233   1.919       .  S
Al225       O235   1.913       .  S
Al225       O234   1.777       .  S
C226        O239   1.264       .  A
C226        C485   1.493       .  S
O227        C237   1.266       .  A
O227       Al229   1.908       .  S
O228        C241   1.269       .  A
O228       Al238   1.918       .  S
Al229       O242   1.916       .  S
Al229       O239   1.941       .  S
Al229       O234   1.791       .  S
O230        C237   1.267       .  A
O230       Al238   1.921       .  S
O231        C240   1.265       .  A
O231       Al238   1.938       .  S
O232       Al238   1.913       .  S
O233        C240   1.262       .  A
O234       Al238   1.775       .  S
O235        C236   1.267       .  A
C236        C473   1.470       .  S
C237        C860   1.492       .  S
C240        C545   1.512       .  S
C241        O242   1.264       .  A
C241        C461   1.484       .  S
O243        C258   1.272       .  A
O243       Al251   1.936       .  S
C244        O254   1.265       .  A
C244        O245   1.266       .  A
C244        C452   1.487       .  S
O245       Al247   1.914       .  S
O246        C248   1.262       .  A
O246       Al247   1.914       .  S
Al247       O255   1.940       .  S
Al247       O257   1.893       .  S
Al247       O256   1.777       .  S
C248        O261   1.260       .  A
C248        C812   1.480       .  S
O249        C259   1.268       .  A
O249       Al251   1.933       .  S
O250        C263   1.261       .  A
O250       Al260   1.916       .  S
Al251       O264   1.899       .  S
Al251       O261   1.904       .  S
Al251       O256   1.778       .  S
O252        C259   1.254       .  A
O252       Al260   1.858       .  S
O253        C262   1.257       .  A
O253       Al260   1.874       .  S
O254       Al260   1.920       .  S
O255        C262   1.266       .  A
O256       Al260   1.762       .  S
O257        C258   1.265       .  A
C258        C464   1.479       .  S
C259        C425   1.473       .  S
C262        C509   1.470       .  S
C263        O264   1.261       .  A
C263        C437   1.476       .  S
O265        C280   1.249       .  A
O265       Al273   1.872       .  S
C266        O276   1.270       .  A
C266        O267   1.272       .  A
C266        C413   1.489       .  S
O267       Al269   1.937       .  S
O268        C270   1.255       .  A
O268       Al269   1.856       .  S
Al269       O277   1.904       .  S
Al269       O279   1.928       .  S
Al269       O278   1.764       .  S
C270        O283   1.286       .  A
C270        C536   1.512       .  S
O271        C281   1.267       .  A
O271       Al273   1.927       .  S
O272        C285   1.264       .  A
O272       Al282   1.873       .  S
Al273       O286   1.963       .  S
Al273       O283   2.023       .  S
Al273       O278   1.776       .  S
O274        C281   1.255       .  A
O274       Al282   1.890       .  S
O275        C284   1.263       .  A
O275       Al282   1.914       .  S
O276       Al282   1.909       .  S
O277        C284   1.263       .  A
O278       Al282   1.778       .  S
O279        C280   1.264       .  A
C280        C524   1.486       .  S
C281        C593   1.493       .  S
C284        C389   1.481       .  S
C285        O286   1.280       .  A
C285        C401   1.484       .  S
O287        C302   1.256       .  A
O287       Al295   1.893       .  S
C288        O298   1.266       .  A
C288        O289   1.261       .  A
C288        C416   1.485       .  S
O289       Al291   1.899       .  S
O290        C292   1.272       .  A
O290       Al291   1.929       .  S
Al291      O1227   1.934       .  S
Al291      O1229   1.918   1_554  S
Al291       O300   1.779       .  S
C292       O1233   1.267       .  A
C292        C608   1.494       .  S
O293        C303   1.254       .  A
O293      Al1223   1.903   1_554  S
O294        C307   1.271       .  A
O294      Al1232   1.915       .  S
Al295       O308   1.903       .  S
Al295       O305   1.903       .  S
Al295      O1221   1.909       .  S
Al295      O1228   1.788       .  S
O296        C303   1.259       .  A
O296       Al304   1.917       .  S
O297        C306   1.259       .  A
O297       Al304   1.901       .  S
O298       Al304   1.921       .  S
O299       C1234   1.265       .  A
O299      Al1219   1.937       .  S
O300       Al304   1.773       .  S
O300      Al1223   1.789   1_554  S
O301        C302   1.263       .  A
O301      Al1219   1.929       .  S
C302        C404   1.484       .  S
C303        C584   1.476       .  S
Al304      O1222   1.925   1_554  S
O305       C1220   1.269       .  A
C306       O1227   1.264       .  A
C306        C377   1.505   1_554  S
C307        O308   1.267       .  A
C307        C500   1.477       .  S
O309        C324   1.256       .  A
O309       Al317   1.877       .  S
C310        O320   1.269       .  A
C310        O311   1.266       .  A
C310        C365   1.490       .  S
O311       Al313   1.915       .  S
O312        C314   1.265       .  A
O312       Al313   1.914       .  S
Al313       O321   1.913       .  S
Al313      O1251   1.902       .  S
Al313       O322   1.775       .  S
C314        O327   1.266       .  A
C314        C488   1.494       .  S
O315        C325   1.264       .  A
O315       Al317   1.905       .  S
O316        C329   1.265       .  A
O316       Al326   1.909       .  S
Al317       O330   1.925       .  S
Al317      O1255   1.946       .  S
Al317      O1250   1.784       .  S
O318        C325   1.267       .  A
O318       Al326   1.926       .  S
O319       C1256   1.266       .  A
O319       Al326   1.938       .  S
O320      Al1254   1.922       .  S
O321        C328   1.262       .  A
O322      Al1245   1.789   1_554  S
O322      Al1254   1.781       .  S
O323        C324   1.264       .  A
O323      Al1241   1.910       .  S
C324        C428   1.481       .  S
C325        C716   1.494       .  S
Al326      O1248   1.919       .  S
Al326      O1250   1.781       .  S
O327      Al1245   1.943   1_554  S
C328       O1247   1.265       .  A
C328        C380   1.507   1_554  S
C329        O330   1.267       .  A
C329        C356   1.490       .  S
O331        C346   1.270       .  A
O331       Al339   1.930       .  S
C332        O342   1.269       .  A
C332        O333   1.264       .  A
C332        C368   1.499       .  S
O333       Al335   1.909       .  S
O334        C336   1.264       .  A
O334       Al335   1.913       .  S
Al335       O343   1.930       .  S
Al335       O345   1.906       .  S
Al335       O344   1.772       .  S
C336        O349   1.261       .  A
C336        C752   1.479       .  S
O337        C347   1.264       .  A
O337       Al339   1.925       .  S
O338        C351   1.267       .  A
O338       Al348   1.930       .  S
Al339       O352   1.895       .  S
Al339       O349   1.904       .  S
Al339       O344   1.773       .  S
O340        C347   1.252       .  A
O340       Al348   1.854       .  S
O341        C350   1.257       .  A
O341       Al348   1.876       .  S
O342       Al348   1.936       .  S
O343        C350   1.264       .  A
O344       Al348   1.759       .  S
O345        C346   1.268       .  A
C346        C353   1.487       .  S
C347        C476   1.461       .  S
C350        C392   1.480       .  S
C351        O352   1.263       .  A
C351        C440   1.484       .  S
C353        C354   1.407       .  A
C353        C358   1.414       .  A
C354        C355   1.405       .  A
C354        H359   1.085       .  S
C355        C356   1.416       .  A
C355        C362   1.444       .  S
C356        C357   1.407       .  A
C357        C358   1.400       .  A
C357        H360   1.085       .  S
C358        C361   1.445       .  S
C361        N363   1.157       .  T
C362        N364   1.157       .  T
C365        C366   1.406       .  A
C365        C370   1.411       .  A
C366        C367   1.402       .  A
C366        H371   1.084       .  S
C367        C368   1.416       .  A
C367        C374   1.442       .  S
C368        C369   1.412       .  A
C369        C370   1.408       .  A
C369        H372   1.079       .  S
C370        C373   1.444       .  S
C373        N375   1.157       .  T
C374        N376   1.157       .  T
C377        C378   1.409       .  A
C377       C1310   1.418   1_556  A
C378        C379   1.407   1_655  A
C378        H383   1.085       .  S
C379        C380   1.417       .  A
C379        C386   1.444       .  S
C380       C1309   1.410   1_556  A
C381        C382   1.409   1_455  A
C381       C1308   1.410       .  A
C381        H384   1.085       .  S
C382       C1305   1.417       .  A
C382        C385   1.443       .  S
C385        N387   1.157       .  T
C386        N388   1.157       .  T
C389        C390   1.407       .  A
C389        C394   1.411       .  A
C390        C391   1.396   1_655  A
C390        H395   1.085       .  S
C391        C392   1.413       .  A
C391        C398   1.445       .  S
C392        C393   1.407       .  A
C393        C394   1.398   1_455  A
C393        H396   1.086       .  S
C394        C397   1.444       .  S
C397        N399   1.157       .  T
C398        N400   1.157       .  T
C401        C402   1.411       .  A
C401        C406   1.407       .  A
C402        C403   1.403       .  A
C402        H407   1.086       .  S
C403        C404   1.410       .  A
C403        C410   1.444       .  S
C404        C405   1.409       .  A
C405        C406   1.398       .  A
C405        H408   1.086       .  S
C406        C409   1.443       .  S
C409        N411   1.157       .  T
C410        N412   1.157       .  T
C413        C414   1.405       .  A
C413        C418   1.415       .  A
C414        C415   1.404       .  A
C414        H419   1.083       .  S
C415        C416   1.415       .  A
C415        C422   1.442       .  S
C416        C417   1.404       .  A
C417        C418   1.401       .  A
C417        H420   1.084       .  S
C418        C421   1.442       .  S
C421        N423   1.156       .  T
C422        N424   1.156       .  T
C425        C426   1.403       .  A
C425        C430   1.412       .  A
C426        C427   1.398       .  A
C426        H431   1.084       .  S
C427        C428   1.418       .  A
C427        C434   1.445       .  S
C428        C429   1.404       .  A
C429        C430   1.391       .  A
C429        H432   1.084       .  S
C430        C433   1.444       .  S
C433        N435   1.156       .  T
C434        N436   1.157       .  T
C437        C438   1.401       .  A
C437        C442   1.410       .  A
C438        C439   1.399       .  A
C438        H443   1.085       .  S
C439        C440   1.416       .  A
C439        C446   1.445       .  S
C440        C441   1.407       .  A
C441        C442   1.404       .  A
C441        H444   1.084       .  S
C442        C445   1.443       .  S
C445        N447   1.157       .  T
C446        N448   1.157       .  T
C449        C450   1.405       .  A
C449        C454   1.411       .  A
C450       C1379   1.403   1_554  A
C450        H455   1.085       .  S
C451        C452   1.417       .  A
C451       C1378   1.397       .  A
C451        C458   1.445       .  S
C452        C453   1.409       .  A
C453       C1382   1.406       .  A
C453        H456   1.084       .  S
C454       C1381   1.405   1_554  A
C454        C457   1.444       .  S
C457        N459   1.157       .  T
C458        N460   1.157       .  T
C461        C462   1.409       .  A
C461        C466   1.411       .  A
C462        C463   1.401       .  A
C462        H467   1.086       .  S
C463        C464   1.409       .  A
C463        C470   1.445       .  S
C464        C465   1.406       .  A
C465        C466   1.402       .  A
C465        H468   1.086       .  S
C466        C469   1.444       .  S
C469        N471   1.157       .  T
C470        N472   1.157       .  T
C473        C474   1.401       .  A
C473        C478   1.417       .  A
C474        C475   1.387       .  A
C474        H479   1.085       .  S
C475        C476   1.408       .  A
C475        C482   1.441       .  S
C476        C477   1.402       .  A
C477        C478   1.397       .  A
C477        H480   1.085       .  S
C478        C481   1.446       .  S
C481        N483   1.158       .  T
C482        N484   1.155       .  T
C485        C486   1.410       .  A
C485        C490   1.408       .  A
C486        C487   1.408       .  A
C486        H491   1.082       .  S
C487        C488   1.407       .  A
C487        C494   1.441       .  S
C488        C489   1.410       .  A
C489        C490   1.410       .  A
C489        H492   1.081       .  S
C490        C493   1.443       .  S
C493        N495   1.157       .  T
C494        N496   1.157       .  T
C497        C498   1.407       .  A
C497        C502   1.410       .  A
C498        C499   1.407       .  A
C498        H503   1.084       .  S
C499        C500   1.414       .  A
C499        C506   1.443       .  S
C500        C501   1.398       .  A
C501        C502   1.388       .  A
C501        H504   1.086       .  S
C502        C505   1.435       .  S
C505        N507   1.153       .  T
C506        N508   1.157       .  T
C509        C510   1.401       .  A
C509        C514   1.414       .  A
C510        C511   1.393   1_455  A
C510        H515   1.086       .  S
C511        C512   1.410       .  A
C511        C518   1.445       .  S
C512        C513   1.401       .  A
C513        C514   1.401   1_655  A
C513        H516   1.086       .  S
C514        C517   1.444       .  S
C517        N519   1.157       .  T
C518        N520   1.157       .  T
C521        C522   1.406       .  A
C521        C526   1.419       .  A
C522        C523   1.406       .  A
C522        H527   1.083       .  S
C523        C524   1.420       .  A
C523        C530   1.445       .  S
C524        C525   1.401       .  A
C525        C526   1.393       .  A
C525        H528   1.083       .  S
C526        C529   1.446       .  S
C529        N531   1.157       .  T
C530        N532   1.158       .  T
C533        C534   1.405       .  A
C533        C538   1.427       .  A
C534        C535   1.405       .  A
C534        H539   1.085       .  S
C535        C536   1.419       .  A
C535        C542   1.440       .  S
C536        C537   1.408       .  A
C537        C538   1.422       .  A
C537        H540   1.085       .  S
C538        C541   1.442       .  S
C541        N543   1.158       .  T
C542        N544   1.155       .  T
C545        C546   1.412       .  A
C545        C550   1.419       .  A
C546        C547   1.414   1_455  A
C546        H551   1.084       .  S
C547        C548   1.419       .  A
C547        C554   1.443       .  S
C548        C549   1.410       .  A
C549        C550   1.406   1_655  A
C549        H552   1.085       .  S
C550        C553   1.444       .  S
C553        N555   1.157       .  T
C554        N556   1.157       .  T
C557        C558   1.404       .  A
C557        C562   1.424       .  A
C558        C559   1.397       .  A
C558        H563   1.084       .  S
C559        C560   1.409       .  A
C559        C566   1.441       .  S
C560        C561   1.396       .  A
C561        C562   1.400       .  A
C561        H564   1.085       .  S
C562        C565   1.445       .  S
C565        N567   1.158       .  T
C566        N568   1.156       .  T
C569        C570   1.402       .  A
C569        C574   1.406       .  A
C570       C1499   1.395   1_554  A
C570        H575   1.088       .  S
C571        C572   1.410       .  A
C571       C1498   1.396       .  A
C571        C578   1.445       .  S
C572        C573   1.409       .  A
C573       C1502   1.406       .  A
C573        H576   1.086       .  S
C574       C1501   1.407   1_554  A
C574        C577   1.443       .  S
C577        N579   1.157       .  T
C578        N580   1.157       .  T
C581        C582   1.409       .  A
C581        C586   1.411       .  A
C582        C583   1.405       .  A
C582        H587   1.085       .  S
C583        C584   1.407       .  A
C583        C590   1.442       .  S
C584        C585   1.403       .  A
C585        C586   1.397       .  A
C585        H588   1.086       .  S
C586        C589   1.443       .  S
C589        N591   1.156       .  T
C590        N592   1.157       .  T
C593        C594   1.405       .  A
C593        C598   1.418       .  A
C594        C595   1.408       .  A
C594        H599   1.085       .  S
C595        C596   1.416       .  A
C595        C602   1.443       .  S
C596        C597   1.403       .  A
C597        C598   1.404       .  A
C597        H600   1.085       .  S
C598        C601   1.445       .  S
C601        N603   1.157       .  T
C602        N604   1.157       .  T
C605        C606   1.406       .  A
C605        C610   1.419       .  A
C606        C607   1.408       .  A
C606        H611   1.086       .  S
C607        C608   1.418       .  A
C607        C614   1.443       .  S
C608        C609   1.404       .  A
C609        C610   1.394       .  A
C609       H1540   1.086       .  S
C610        C613   1.446       .  S
H612       C1537   1.086       .  S
C613       N1543   1.158       .  T
C614        N616   1.157       .  T
N615       C1541   1.158       .  T
C617        C618   1.404       .  A
C617        C622   1.414       .  A
C618        C619   1.406       .  A
C618        H623   1.085       .  S
C619        C620   1.415       .  A
C619        C626   1.443       .  S
C620        C621   1.402       .  A
C621        C622   1.401       .  A
C621        H624   1.085       .  S
C622        C625   1.443       .  S
C625        N627   1.157       .  T
C626        N628   1.157       .  T
C629        C630   1.411       .  A
C629        C634   1.410       .  A
C630        C631   1.399       .  A
C630        H635   1.085       .  S
C631        C632   1.405       .  A
C631        C638   1.444       .  S
C632        C633   1.405       .  A
C633        C634   1.399       .  A
C633        H636   1.085       .  S
C634        C637   1.444       .  S
C637        N639   1.157       .  T
C638        N640   1.157       .  T
C641        C642   1.398       .  A
C641        C646   1.410       .  A
C642        C643   1.390       .  A
C642        H647   1.086       .  S
C643        C644   1.418       .  A
C643        C650   1.446       .  S
C644        C645   1.407       .  A
C645        C646   1.405       .  A
C645        H648   1.082       .  S
C646        C649   1.444       .  S
C649        N651   1.157       .  T
C650        N652   1.157       .  T
C653        C654   1.413       .  A
C653        C658   1.412       .  A
C654        C655   1.403   1_545  A
C654        H659   1.085       .  S
C655        C656   1.412       .  A
C655        C662   1.444       .  S
C656        C657   1.412       .  A
C657        C658   1.408   1_565  A
C657        H660   1.084       .  S
C658        C661   1.443       .  S
C661        N663   1.157       .  T
C662        N664   1.157       .  T
C665        C666   1.408       .  A
C665        C670   1.419       .  A
C666        C667   1.411       .  A
C666        H671   1.085       .  S
C667        C668   1.420       .  A
C667        C674   1.444       .  S
C668        C669   1.406       .  A
C669        C670   1.412       .  A
C669        H672   1.084       .  S
C670        C673   1.443       .  S
C673        N675   1.157       .  T
C674        N676   1.157       .  T
C677        C678   1.402   1_565  A
C677        C682   1.415   1_565  A
C678        C679   1.399       .  A
C678        H683   1.084   1_545  S
C679        C680   1.415       .  A
C679        C686   1.445       .  S
C680        C681   1.405       .  A
C681        C682   1.407       .  A
C681        H684   1.083       .  S
C682        C685   1.444   1_545  S
C685        N687   1.157       .  T
C686       N1616   1.157       .  T
N688       C1614   1.157       .  T
C689       C1018   1.483       .  S
C689        C690   1.406       .  A
C689        C694   1.414       .  A
C690        C691   1.405       .  A
C690        H695   1.085       .  S
C691        C692   1.412       .  A
C691        C698   1.443       .  S
C692        C693   1.402       .  A
C693        C694   1.400       .  A
C693        H696   1.085       .  S
C694        C697   1.445       .  S
C697        N699   1.157       .  T
C698        N700   1.157       .  T
C701        C702   1.406       .  A
C701        C706   1.412       .  A
C702        C703   1.398       .  A
C702        H707   1.087       .  S
C703        C704   1.412       .  A
C703        C710   1.445       .  S
C704        C705   1.409       .  A
C705        C706   1.407       .  A
C705        H708   1.086       .  S
C706        C709   1.444       .  S
C709        N711   1.157       .  T
C710        N712   1.157       .  T
C713        C714   1.405       .  A
C713        C718   1.417       .  A
C714        C715   1.407       .  A
C714        H719   1.084       .  S
C715        C716   1.419       .  A
C715       C1650   1.444       .  S
C716        C717   1.404       .  A
C717        C718   1.401       .  A
C717        H720   1.084       .  S
C718        C721   1.444       .  S
C721        N723   1.157       .  T
C722       C1643   1.444       .  S
C722        N724   1.157       .  T
C725        C726   1.401       .  A
C725        C730   1.412       .  A
C726        C727   1.392       .  A
C726        H731   1.086       .  S
C727        C728   1.415       .  A
C727        C734   1.446       .  S
C728        C729   1.403       .  A
C729        C730   1.399       .  A
C729        H732   1.085       .  S
C730        C733   1.442       .  S
C733        N735   1.157       .  T
C734        N736   1.158       .  T
C737        C742   1.419       .  A
C737       C1666   1.402       .  A
C738        C739   1.405       .  A
C738       C1665   1.401   1_554  A
C738        H743   1.085       .  S
C739        C740   1.414       .  A
C739        C746   1.440       .  S
C740       C1669   1.401   1_554  A
C741        C742   1.400       .  A
C741       C1668   1.401       .  A
C741        H744   1.086       .  S
C742        C745   1.444       .  S
C745        N747   1.157       .  T
C746        N748   1.157       .  T
C749        C750   1.402       .  A
C749        C754   1.412       .  A
C750        C751   1.390       .  A
C750        H755   1.085       .  S
C751        C752   1.414       .  A
C751        C758   1.445       .  S
C752        C753   1.407       .  A
C753        C754   1.405       .  A
C753        H756   1.084       .  S
C754        C757   1.443       .  S
C757        N759   1.157       .  T
C758        N760   1.157       .  T
C761        C762   1.412       .  A
C761        C766   1.416       .  A
C762        C763   1.409       .  A
C762        H767   1.084       .  S
C763        C764   1.415       .  A
C763        C770   1.443       .  S
C764        C765   1.409       .  A
C765        C766   1.397       .  A
C765        H768   1.085       .  S
C766        C769   1.445       .  S
C769        N771   1.157       .  T
C770        N772   1.157       .  T
C773        C774   1.406       .  A
C773        C778   1.409       .  A
C774        C775   1.401       .  A
C774        H779   1.086       .  S
C775        C776   1.411       .  A
C775        C782   1.445       .  S
C776        C777   1.408       .  A
C777        C778   1.402       .  A
C777        H780   1.085       .  S
C778        C781   1.444       .  S
C781        N783   1.157       .  T
C782        N784   1.157       .  T
C785        C786   1.406       .  A
C785        C790   1.414       .  A
C786        C787   1.392       .  A
C786        H791   1.085       .  S
C787        C788   1.406       .  A
C787        C794   1.446       .  S
C788        C789   1.403       .  A
C789        C790   1.403       .  A
C789        H792   1.085       .  S
C790        C793   1.444       .  S
C793        N795   1.157       .  T
C794        N796   1.157       .  T
C797        C798   1.409       .  A
C797        C802   1.415       .  A
C798        C799   1.398       .  A
C798        H803   1.084       .  S
C799        C800   1.412       .  A
C799        C806   1.444       .  S
C800        C801   1.407       .  A
C801        C802   1.393       .  A
C801        H804   1.085       .  S
C802        C805   1.445       .  S
C805        N807   1.157       .  T
C806        N808   1.157       .  T
C809        C810   1.408       .  A
C809        C814   1.416       .  A
C810        C811   1.405       .  A
C810        H815   1.084       .  S
C811        C812   1.411       .  A
C811        C818   1.443       .  S
C812        C813   1.402       .  A
C813        C814   1.399       .  A
C813        H816   1.085       .  S
C814        C817   1.445       .  S
C817        N819   1.157       .  T
C818        N820   1.157       .  T
C821        C826   1.417       .  A
C821       C1750   1.413       .  A
C822        C823   1.410       .  A
C822       C1749   1.413   1_554  A
C822        H827   1.084       .  S
C823        C824   1.414       .  A
C823        C830   1.444       .  S
C824        C825   1.407   1_554  A
C825       C1754   1.400       .  A
C825       H1756   1.086       .  S
C826       C1753   1.401       .  A
C826        C829   1.445       .  S
H828       C1753   1.085       .  S
C829        N831   1.157       .  T
C830        N832   1.157       .  T
C833        C834   1.407       .  A
C833        C838   1.419       .  A
C834        C835   1.407   1_565  A
C834        H839   1.086       .  S
C835        C836   1.421       .  A
C835        C842   1.444       .  S
C836        C837   1.408       .  A
C837        C838   1.406   1_545  A
C837        H840   1.085       .  S
C838        C841   1.444       .  S
C841        N843   1.157       .  T
C842        N844   1.158       .  T
C845        C846   1.408       .  A
C845        C850   1.406       .  A
C846        C847   1.400       .  A
C846        H851   1.084       .  S
C847        C848   1.407       .  A
C847        C854   1.444       .  S
C848        C849   1.409       .  A
C849        C850   1.402       .  A
C849        H852   1.084       .  S
C850        C853   1.443       .  S
C853        N855   1.157       .  T
C854        N856   1.157       .  T
C857        C858   1.413       .  A
C857        C862   1.415       .  A
C858        C859   1.396       .  A
C858        H863   1.084       .  S
C859        C860   1.410       .  A
C859        C866   1.446       .  S
C860        C861   1.412       .  A
C861        C862   1.413       .  A
C861        H864   1.084       .  S
C862        C865   1.442       .  S
C865        N867   1.157       .  T
C866        N868   1.157       .  T
C869        C870   1.405       .  A
C869        C874   1.424       .  A
C870        C871   1.410       .  A
C870        H875   1.085       .  S
C871        C872   1.422       .  A
C871        C878   1.443       .  S
C872        C873   1.401       .  A
C873        C874   1.395       .  A
C873        H876   1.085       .  S
C874        C877   1.445       .  S
C877        N879   1.156       .  T
C878        N880   1.157       .  T
C881        C882   1.407       .  A
C881        C886   1.407   1_565  A
C882        C883   1.392   1_565  A
C882        H887   1.085       .  S
C883        C884   1.409       .  A
C883        C890   1.445       .  S
C884        C885   1.409       .  A
C885        C886   1.397       .  A
C885        H888   1.084       .  S
C886        C889   1.444   1_545  S
C889        N891   1.157       .  T
C890        N892   1.157       .  T
C893        C894   1.403       .  A
C893        C898   1.413       .  A
C894        C895   1.403       .  A
C894        H899   1.085       .  S
C895        C896   1.412       .  A
C895        C902   1.444       .  S
C896        C897   1.400       .  A
C897        C898   1.398       .  A
C897        H900   1.085       .  S
C898        C901   1.445       .  S
C901        N903   1.157       .  T
C902        N904   1.157       .  T
C905        C966   1.469       .  S
C905        C906   1.398       .  A
C905        C910   1.413       .  A
C906        C907   1.389       .  A
C906        H911   1.084       .  S
C907        C908   1.411       .  A
C907        C914   1.442       .  S
C908        C909   1.405       .  A
C909        C910   1.404       .  A
C909        H912   1.083       .  S
C910        C913   1.445       .  S
C913        N915   1.158       .  T
C914        N916   1.156       .  T
C917        C918   1.402       .  A
C917        C922   1.411       .  A
C918        C919   1.393       .  A
C918        H923   1.085       .  S
C919        C920   1.411       .  A
C919        C926   1.444       .  S
C920        C921   1.404       .  A
C921        C922   1.397       .  A
C921        H924   1.085       .  S
C922        C925   1.444       .  S
C925        N927   1.157       .  T
C926        N928   1.157       .  T
O929        C944   1.256       .  A
O929       Al937   1.886       .  S
C930        O940   1.267       .  A
C930        O931   1.259       .  A
C930       C1821   1.471       .  S
O931       Al933   1.895       .  S
O932        C934   1.251       .  A
O932       Al933   1.855       .  S
Al933       O941   1.865       .  S
Al933       O943   1.901       .  S
Al933       O942   1.758       .  S
C934        O947   1.278       .  A
C934       C1797   1.496       .  S
O935        C945   1.273       .  A
O935       Al937   1.937       .  S
O936        C949   1.269       .  A
O936       Al946   1.906       .  S
Al937       O950   1.912       .  S
Al937       O947   1.993       .  S
Al937       O942   1.778       .  S
O938        C945   1.262       .  A
O938       Al946   1.895       .  S
O939        C948   1.269       .  A
O939       Al946   1.949       .  S
O940       Al946   1.927       .  S
O941        C948   1.256       .  A
O942       Al946   1.770       .  S
O943        C944   1.257       .  A
C944       C1848   1.464       .  S
C945       C1785   1.504       .  S
C948       C1809   1.477       .  S
C949        O950   1.269       .  A
C949       C1836   1.472       .  S
O951        C966   1.269   1_556  A
O951       Al959   1.918       .  S
C952        O962   1.270       .  A
C952        O953   1.257       .  A
C952       C1824   1.466       .  S
O953       Al955   1.878       .  S
O954        C956   1.263       .  A
O954       Al955   1.918       .  S
Al955       O963   1.927       .  S
Al955       O965   1.886       .  S
Al955       O964   1.781       .  S
C956        O969   1.265       .  A
C956       C1737   1.493       .  S
O957        C967   1.261       .  A
O957       Al959   1.922       .  S
O958        C971   1.269       .  A
O958       Al968   1.934       .  S
Al959       O972   1.905       .  S
Al959       O969   1.918       .  S
Al959       O964   1.782       .  S
O960        C967   1.261       .  A
O960       Al968   1.905       .  S
O961        C970   1.266       .  A
O961       Al968   1.926       .  S
O962       Al968   1.936       .  S
O963        C970   1.262       .  A
O964       Al968   1.769       .  S
O965        C966   1.261   1_556  A
C967       C1773   1.480       .  S
C970       C1761   1.510       .  S
C971        O972   1.265       .  A
C971       C1749   1.503       .  S
O973        C988   1.257       .  A
O973       Al981   1.877       .  S
C974        O984   1.266       .  A
C974        O975   1.265       .  A
C974       C1713   1.474       .  S
O975       Al977   1.912       .  S
O976        C978   1.256       .  A
O976       Al977   1.870       .  S
Al977       O985   1.887       .  S
Al977       O987   1.916       .  S
Al977       O986   1.757       .  S
C978        O991   1.273       .  A
C978       C1692   1.495       .  S
O979        C989   1.262       .  A
O979       Al981   1.907       .  S
O980        C993   1.265       .  A
O980       Al990   1.889       .  S
Al981       O994   1.947       .  S
Al981       O991   1.978       .  S
Al981       O986   1.779       .  S
O982        C989   1.261       .  A
O982       Al990   1.888       .  S
O983        C992   1.264       .  A
O983       Al990   1.917       .  S
O984       Al990   1.910       .  S
O985        C992   1.262       .  A
O986       Al990   1.769       .  S
O987        C988   1.262       .  A
C988       C1725   1.481       .  S
C989       C1677   1.477       .  S
C992       C1812   1.480       .  S
C993        O994   1.274       .  A
C993       C1701   1.478       .  S
O995       C1010   1.254       .  A
O995      Al1003   1.904       .  S
C996       O1006   1.263       .  A
C996       C1716   1.464       .  S
O997       Al999   1.888       .  S
O998       C1000   1.275       .  A
O998       Al999   1.942       .  S
Al999      O1007   1.932       .  S
Al999      O1009   1.916       .  S
Al999      O1008   1.783       .  S
C1000      O1013   1.273       .  A
C1000      C1641   1.500       .  S
O1001      C1011   1.250       .  A
O1001     Al1003   1.896       .  S
O1002      C1015   1.269       .  A
O1002     Al1012   1.912       .  S
Al1003     O1016   1.918       .  S
Al1003     O1013   1.920       .  S
Al1003     O1008   1.789       .  S
O1004      C1011   1.259       .  A
O1004     Al1012   1.922       .  S
O1005      C1014   1.256       .  A
O1005     Al1012   1.893       .  S
O1007      C1014   1.264       .  A
O1008     Al1012   1.778       .  S
O1009      C1010   1.259       .  A
C1010      C1704   1.480       .  S
C1011      C1665   1.486       .  S
C1014      C1764   1.509       .  S
C1015      O1016   1.275       .  A
C1015      C1656   1.483       .  S
O1017      C1032   1.255       .  A
O1017     Al1025   1.872       .  S
C1018      O1028   1.270       .  A
C1018      O1019   1.264       .  A
O1019     Al1021   1.917       .  S
O1020      C1022   1.254       .  A
O1020     Al1021   1.865       .  S
Al1021     O1029   1.880       .  S
Al1021     O1031   1.908       .  S
Al1021     O1030   1.767       .  S
C1022      O1035   1.275       .  A
C1022      C1752   1.499       .  S
O1023      C1033   1.269       .  A
O1023     Al1025   1.922       .  S
O1024      C1037   1.274       .  A
O1024     Al1034   1.926       .  S
Al1025     O1038   1.924       .  S
Al1025     O1035   1.982       .  S
Al1025     O1030   1.769       .  S
O1026      C1033   1.268       .  A
O1026     Al1034   1.938       .  S
O1027      C1036   1.274       .  A
O1027     Al1034   1.974       .  S
O1028     Al1034   1.928       .  S
O1029      C1036   1.255       .  A
O1030     Al1034   1.770       .  S
O1031      C1032   1.261       .  A
C1032      C1845   1.462       .  S
C1033      C1593   1.505       .  S
C1036      C1605   1.489       .  S
C1037      O1038   1.271       .  A
C1037      C1629   1.485       .  S
O1039      C1054   1.271       .  A
O1039     Al1047   1.938       .  S
C1040      O1050   1.269       .  A
C1040      O1041   1.265       .  A
C1040      C1620   1.487       .  S
O1041     Al1043   1.913       .  S
O1042      C1044   1.261       .  A
O1042     Al1043   1.900       .  S
Al1043     O1051   1.900       .  S
Al1043     O1053   1.899       .  S
Al1043     O1052   1.778       .  S
C1044      O1057   1.258       .  A
C1044      C1569   1.471       .  S
O1045      C1055   1.265       .  A
O1045     Al1047   1.939       .  S
O1046      C1059   1.272       .  A
O1046     Al1056   1.940       .  S
Al1047     O1060   1.888       .  S
Al1047     O1057   1.894       .  S
Al1047     O1052   1.786       .  S
O1048      C1055   1.261       .  A
O1048     Al1056   1.895       .  S
O1049      C1058   1.267       .  A
O1049     Al1056   1.920       .  S
O1050     Al1056   1.937       .  S
O1051      C1058   1.259       .  A
O1052     Al1056   1.768       .  S
O1053      C1054   1.263       .  A
C1054      C1632   1.489       .  S
C1055      C1776   1.481       .  S
C1058      C1584   1.484       .  S
C1059      O1060   1.258       .  A
C1059      C1800   1.497       .  S
O1061      C1076   1.278       .  A
O1061     Al1069   1.963       .  S
C1062      C1548   1.473       .  S
O1063     Al1065   1.910       .  S
O1064      C1066   1.255       .  A
O1064     Al1065   1.900       .  S
Al1065     O1073   1.909       .  S
Al1065     O1075   1.874       .  S
Al1065     O1074   1.776       .  S
C1066      O1079   1.262       .  A
C1066      C1533   1.493       .  S
O1067      C1077   1.269       .  A
O1067     Al1069   1.943       .  S
O1068      C1081   1.264       .  A
O1068     Al1078   1.917       .  S
Al1069     O1082   1.908       .  S
Al1069     O1079   1.930       .  S
Al1069     O1074   1.780       .  S
O1070      C1077   1.261       .  A
O1070     Al1078   1.886       .  S
O1071      C1080   1.267       .  A
O1071     Al1078   1.933       .  S
O1072     Al1078   1.940       .  S
O1073      C1080   1.260       .  A
O1074     Al1078   1.762       .  S
O1075      C1076   1.262       .  A
C1076      C1557   1.486       .  S
C1077      C1668   1.481       .  S
C1080      C1608   1.494       .  S
C1081      O1082   1.263       .  A
C1081      C1689   1.502       .  S
O1083      C1098   1.267       .  A
O1083     Al1091   1.927       .  S
C1084      O1094   1.264       .  A
C1084      O1085   1.258       .  A
C1084      C1560   1.479       .  S
O1085     Al1087   1.885       .  S
O1086      C1088   1.276       .  A
O1086     Al1087   1.953       .  S
Al1087     O1095   1.970       .  S
Al1087     O1097   1.903       .  S
Al1087     O1096   1.767       .  S
C1088      O1101   1.264       .  A
C1088      C1524   1.497       .  S
O1089      C1099   1.264       .  A
O1089     Al1091   1.941       .  S
O1090      C1103   1.270       .  A
O1090     Al1100   1.943       .  S
Al1091     O1104   1.895       .  S
Al1091     O1101   1.901       .  S
Al1091     O1096   1.778       .  S
O1092      C1099   1.251       .  A
O1092     Al1100   1.864       .  S
O1093      C1102   1.253       .  A
O1093     Al1100   1.855       .  S
O1094     Al1100   1.929       .  S
O1095      C1102   1.273       .  A
O1096     Al1100   1.760       .  S
O1097      C1098   1.264       .  A
C1098      C1545   1.486       .  S
C1099      C1728   1.478       .  S
C1102      C1581   1.489       .  S
C1103      O1104   1.265       .  A
C1103      C1653   1.483       .  S
O1105      C1120   1.276       .  A
O1105     Al1113   1.957       .  S
C1106      O1116   1.272       .  A
C1106      O1107   1.254       .  A
C1106      C1497   1.473       .  S
O1107     Al1109   1.856       .  S
O1108      C1110   1.266       .  A
O1108     Al1109   1.935       .  S
Al1109     O1117   1.944       .  S
Al1109     O1119   1.856       .  S
Al1109     O1118   1.779       .  S
C1110      O1123   1.266       .  A
C1110      C1596   1.508       .  S
O1111      C1121   1.266       .  A
O1111     Al1113   1.950       .  S
O1112      C1125   1.278       .  A
O1112     Al1122   1.967       .  S
Al1113     O1126   1.916       .  S
Al1113     O1123   1.934       .  S
Al1113     O1118   1.790       .  S
O1114      C1121   1.254       .  A
O1114     Al1122   1.879       .  S
O1115      C1124   1.266       .  A
O1115     Al1122   1.930       .  S
O1116     Al1122   1.961       .  S
O1117      C1124   1.268       .  A
O1118     Al1122   1.769       .  S
O1119      C1120   1.258       .  A
C1120      C1485   1.489       .  S
C1121      C1509   1.480       .  S
C1124      C1476   1.519       .  S
C1125      O1126   1.266       .  A
C1125      C1461   1.521       .  S
O1127      C1142   1.273       .  A
O1127     Al1135   1.935       .  S
C1128      O1138   1.265       .  A
C1128      O1129   1.263       .  A
C1128      C1488   1.467       .  S
O1129     Al1131   1.907       .  S
O1130      C1132   1.261       .  A
O1130     Al1131   1.898       .  S
Al1131     O1139   1.918       .  S
Al1131     O1141   1.902       .  S
Al1131     O1140   1.766       .  S
C1132      O1145   1.267       .  A
C1132      C1572   1.484       .  S
O1133      C1143   1.268       .  A
O1133     Al1135   1.957       .  S
O1134      C1147   1.270       .  A
O1134     Al1144   1.953       .  S
Al1135     O1148   1.879       .  S
Al1135     O1145   1.919       .  S
Al1135     O1140   1.772       .  S
O1136      C1143   1.246       .  A
O1136     Al1144   1.857       .  S
O1137      C1146   1.259       .  A
O1137     Al1144   1.874       .  S
O1138     Al1144   1.919       .  S
O1139      C1146   1.262       .  A
O1140     Al1144   1.757       .  S
O1141      C1142   1.267       .  A
C1142      C1500   1.482       .  S
C1143      C1449   1.484       .  S
C1146      C1440   1.463       .  S
C1147      O1148   1.261       .  A
C1147      C1425   1.473       .  S
O1149      C1164   1.254       .  A
O1149     Al1157   1.853       .  S
C1150      O1160   1.265       .  A
C1150      O1151   1.268       .  A
C1150      C1377   1.478       .  S
O1151     Al1153   1.918       .  S
O1152      C1154   1.263       .  A
O1152     Al1153   1.916       .  S
Al1153     O1161   1.923       .  S
Al1153     O1163   1.917       .  S
Al1153     O1162   1.778       .  S
C1154      O1167   1.263       .  A
C1154      C1413   1.495       .  S
O1155      C1165   1.266       .  A
O1155     Al1157   1.903       .  S
O1156      C1169   1.268       .  A
O1156     Al1166   1.918       .  S
Al1157     O1170   1.908       .  S
Al1157     O1167   1.937       .  S
Al1157     O1162   1.786       .  S
O1158      C1165   1.271       .  A
O1158     Al1166   1.940       .  S
O1159      C1168   1.268       .  A
O1159     Al1166   1.953       .  S
O1160     Al1166   1.904       .  S
O1161      C1168   1.263       .  A
O1162     Al1166   1.777       .  S
O1163      C1164   1.267       .  A
C1164      C1401   1.470       .  S
C1165      C1788   1.493       .  S
C1168      C1473   1.521       .  S
C1169      O1170   1.263       .  A
C1169      C1389   1.482       .  S
O1171      C1186   1.270       .  A
O1171     Al1179   1.927       .  S
C1172      O1182   1.267       .  A
C1172      O1173   1.266       .  A
C1172      C1380   1.490       .  S
O1173     Al1175   1.913       .  S
O1174      C1176   1.264       .  A
O1174     Al1175   1.919       .  S
Al1175     O1183   1.934       .  S
Al1175     O1185   1.892       .  S
Al1175     O1184   1.775       .  S
C1176      O1189   1.260       .  A
C1176      C1740   1.484       .  S
O1177      C1187   1.268       .  A
O1177     Al1179   1.932       .  S
O1178      C1191   1.262       .  A
O1178     Al1188   1.924       .  S
Al1179     O1192   1.899       .  S
Al1179     O1189   1.905       .  S
Al1179     O1184   1.778       .  S
O1180      C1187   1.253       .  A
O1180     Al1188   1.851       .  S
O1181      C1190   1.256       .  A
O1181     Al1188   1.872       .  S
O1182     Al1188   1.930       .  S
O1183      C1190   1.265       .  A
O1184     Al1188   1.762       .  S
O1185      C1186   1.264       .  A
C1186      C1392   1.478       .  S
C1187      C1353   1.468       .  S
C1190      C1437   1.467       .  S
C1191      O1192   1.261       .  A
C1191      C1365   1.480       .  S
O1193      C1208   1.248       .  A
O1193     Al1201   1.868       .  S
C1194      O1204   1.269       .  A
C1194      O1195   1.270       .  A
C1194      C1341   1.488       .  S
O1195     Al1197   1.930       .  S
O1196      C1198   1.254       .  A
O1196     Al1197   1.854       .  S
Al1197     O1205   1.903       .  S
Al1197     O1207   1.929       .  S
Al1197     O1206   1.765       .  S
C1198      O1211   1.287       .  A
C1198      C1464   1.517       .  S
O1199      C1209   1.269       .  A
O1199     Al1201   1.931       .  S
O1200      C1213   1.264       .  A
O1200     Al1210   1.874       .  S
Al1201     O1214   1.963       .  S
Al1201     O1211   2.033       .  S
Al1201     O1206   1.777       .  S
O1202      C1209   1.257       .  A
O1202     Al1210   1.888       .  S
O1203      C1212   1.265       .  A
O1203     Al1210   1.919       .  S
O1204     Al1210   1.916       .  S
O1205      C1212   1.264       .  A
O1206     Al1210   1.771       .  S
O1207      C1208   1.264       .  A
C1208      C1452   1.485       .  S
C1209      C1521   1.497       .  S
C1212      C1317   1.480       .  S
C1213      O1214   1.279       .  A
C1213      C1329   1.479       .  S
O1215      C1230   1.258       .  A
O1215     Al1223   1.904       .  S
C1216      O1226   1.265       .  A
C1216      O1217   1.261       .  A
C1216      C1344   1.485       .  S
O1217     Al1219   1.905       .  S
O1218      C1220   1.275       .  A
O1218     Al1219   1.936       .  S
Al1219     O1228   1.780       .  S
C1220      C1536   1.495       .  S
O1221      C1231   1.254       .  A
O1222      C1235   1.271       .  A
Al1223     O1236   1.901       .  S
Al1223     O1233   1.904   1_556  S
O1224      C1231   1.260       .  A
O1224     Al1232   1.921       .  S
O1225      C1234   1.257       .  A
O1225     Al1232   1.890       .  S
O1226     Al1232   1.916       .  S
O1228     Al1232   1.773       .  S
O1229      C1230   1.263       .  A
C1230      C1332   1.479       .  S
C1231      C1512   1.484       .  S
C1234      C1305   1.504       .  S
C1235      O1236   1.267       .  A
C1235      C1428   1.489       .  S
O1237      C1252   1.255       .  A
O1237     Al1245   1.875       .  S
C1238      O1248   1.267       .  A
C1238      O1239   1.266       .  A
C1238      C1293   1.485       .  S
O1239     Al1241   1.914       .  S
O1240      C1242   1.264       .  A
O1240     Al1241   1.913       .  S
Al1241     O1249   1.908       .  S
Al1241     O1250   1.774       .  S
C1242      O1255   1.267       .  A
C1242      C1416   1.494       .  S
O1243      C1253   1.265       .  A
O1243     Al1245   1.910   1_554  S
O1244      C1257   1.266       .  A
O1244     Al1254   1.911   1_556  S
Al1245     O1258   1.918       .  S
O1246      C1253   1.267       .  A
O1246     Al1254   1.924       .  S
O1247     Al1254   1.941       .  S
O1249      C1256   1.262       .  A
O1251      C1252   1.263   1_554  A
C1252      C1356   1.477       .  S
C1253      C1644   1.497       .  S
C1256      C1308   1.505       .  S
C1257      O1258   1.265       .  A
C1257      C1284   1.487       .  S
O1259      C1274   1.271       .  A
O1259     Al1267   1.932       .  S
C1260      O1270   1.268       .  A
C1260      O1261   1.263       .  A
C1260      C1296   1.495       .  S
O1261     Al1263   1.905       .  S
O1262      C1264   1.263       .  A
O1262     Al1263   1.911       .  S
Al1263     O1271   1.927       .  S
Al1263     O1273   1.897       .  S
Al1263     O1272   1.772       .  S
C1264      O1277   1.260       .  A
C1264      C1680   1.477       .  S
O1265      C1275   1.264       .  A
O1265     Al1267   1.922       .  S
O1266      C1279   1.267       .  A
O1266     Al1276   1.936       .  S
Al1267     O1280   1.896       .  S
Al1267     O1277   1.900       .  S
Al1267     O1272   1.773       .  S
O1268      C1275   1.251       .  A
O1268     Al1276   1.853       .  S
O1269      C1278   1.257       .  A
O1269     Al1276   1.878       .  S
O1270     Al1276   1.935       .  S
O1271      C1278   1.265       .  A
O1272     Al1276   1.761       .  S
O1273      C1274   1.267       .  A
C1274      C1281   1.483       .  S
C1275      C1404   1.459       .  S
C1278      C1320   1.478       .  S
C1279      O1280   1.263       .  A
C1279      C1368   1.485       .  S
C1281      C1282   1.406       .  A
C1281      C1286   1.412       .  A
C1282      C1283   1.403       .  A
C1282      H1287   1.085       .  S
C1283      C1284   1.414       .  A
C1283      C1290   1.444       .  S
C1284      C1285   1.407       .  A
C1285      C1286   1.400       .  A
C1285      H1288   1.085       .  S
C1286      C1289   1.445       .  S
C1289      N1291   1.157       .  T
C1290      N1292   1.157       .  T
C1293      C1294   1.405       .  A
C1293      C1298   1.411       .  A
C1294      C1295   1.400       .  A
C1294      H1299   1.086       .  S
C1295      C1296   1.414       .  A
C1295      C1302   1.441       .  S
C1296      C1297   1.411       .  A
C1297      C1298   1.407       .  A
C1297      H1300   1.083       .  S
C1298      C1301   1.444       .  S
C1301      N1303   1.157       .  T
C1302      N1304   1.156       .  T
C1305      C1306   1.409       .  A
C1306      C1307   1.405   1_655  A
C1306      H1311   1.085       .  S
C1307      C1308   1.417       .  A
C1307      C1314   1.445       .  S
C1309      C1310   1.410   1_455  A
C1309      H1312   1.085       .  S
C1310      C1313   1.444       .  S
C1313      N1315   1.158       .  T
C1314      N1316   1.158       .  T
C1317      C1318   1.406       .  A
C1317      C1322   1.412       .  A
C1318      C1319   1.395   1_655  A
C1318      H1323   1.085       .  S
C1319      C1320   1.413       .  A
C1319      C1326   1.446       .  S
C1320      C1321   1.406       .  A
C1321      C1322   1.399   1_455  A
C1321      H1324   1.085       .  S
C1322      C1325   1.444       .  S
C1325      N1327   1.157       .  T
C1326      N1328   1.157       .  T
C1329      C1330   1.407       .  A
C1329      C1334   1.408       .  A
C1330      C1331   1.400       .  A
C1330      H1335   1.086       .  S
C1331      C1332   1.410       .  A
C1331      C1338   1.445       .  S
C1332      C1333   1.408       .  A
C1333      C1334   1.401       .  A
C1333      H1336   1.086       .  S
C1334      C1337   1.443       .  S
C1337      N1339   1.157       .  T
C1338      N1340   1.157       .  T
C1341      C1342   1.405       .  A
C1341      C1346   1.414       .  A
C1342      C1343   1.406       .  A
C1342      H1347   1.084       .  S
C1343      C1344   1.415       .  A
C1343      C1350   1.442       .  S
C1344      C1345   1.403       .  A
C1345      C1346   1.401       .  A
C1345      H1348   1.084       .  S
C1346      C1349   1.442       .  S
C1349      N1351   1.156       .  T
C1350      N1352   1.156       .  T
C1353      C1354   1.403       .  A
C1353      C1358   1.412       .  A
C1354      C1355   1.397       .  A
C1354      H1359   1.085       .  S
C1355      C1356   1.417       .  A
C1355      C1362   1.445       .  S
C1356      C1357   1.404       .  A
C1357      C1358   1.388       .  A
C1357      H1360   1.084   1_556  S
C1358      C1361   1.445       .  S
C1361      N1363   1.156   1_556  T
C1362      N1364   1.157       .  T
C1365      C1366   1.402       .  A
C1365      C1370   1.411       .  A
C1366      C1367   1.399       .  A
C1366      H1371   1.085       .  S
C1367      C1368   1.415       .  A
C1367      C1374   1.445       .  S
C1368      C1369   1.406       .  A
C1369      C1370   1.407       .  A
C1369      H1372   1.084       .  S
C1370      C1373   1.443       .  S
C1373      N1375   1.157       .  T
C1374      N1376   1.157       .  T
C1377      C1378   1.401       .  A
C1377      C1382   1.411       .  A
C1378      H1383   1.085       .  S
C1379      C1380   1.416       .  A
C1379      C1386   1.445       .  S
C1380      C1381   1.408       .  A
C1381      H1384   1.084       .  S
C1382      C1385   1.444       .  S
C1385      N1387   1.157       .  T
C1386      N1388   1.158       .  T
C1389      C1390   1.408       .  A
C1389      C1394   1.411       .  A
C1390      C1391   1.397       .  A
C1390      H1395   1.086       .  S
C1391      C1392   1.409       .  A
C1391      C1398   1.445       .  S
C1392      C1393   1.407       .  A
C1393      C1394   1.403       .  A
C1393      H1396   1.086       .  S
C1394      C1397   1.444       .  S
C1397      N1399   1.157       .  T
C1398      N1400   1.157       .  T
C1401      C1402   1.402       .  A
C1401      C1406   1.418       .  A
C1402      C1403   1.388       .  A
C1402      H1407   1.084       .  S
C1403      C1404   1.409       .  A
C1403      C1410   1.442       .  S
C1404      C1405   1.400       .  A
C1405      C1406   1.393       .  A
C1405      H1408   1.085       .  S
C1406      C1409   1.446       .  S
C1409      N1411   1.158       .  T
C1410      N1412   1.156       .  T
C1413      C1414   1.411       .  A
C1413      C1418   1.408       .  A
C1414      C1415   1.409       .  A
C1414      H1419   1.082       .  S
C1415      C1416   1.408       .  A
C1415      C1422   1.442       .  S
C1416      C1417   1.410       .  A
C1417      C1418   1.409       .  A
C1417      H1420   1.081       .  S
C1418      C1421   1.442       .  S
C1421      N1423   1.157       .  T
C1422      N1424   1.157       .  T
C1425      C1426   1.402       .  A
C1425      C1430   1.406       .  A
C1426      C1427   1.404       .  A
C1426      H1431   1.083       .  S
C1427      C1428   1.418       .  A
C1427      C1434   1.442       .  S
C1428      C1429   1.406       .  A
C1429      C1430   1.396       .  A
C1429      H1432   1.084       .  S
C1430      C1433   1.440       .  S
C1433      N1435   1.155       .  T
C1434      N1436   1.157       .  T
C1437      C1438   1.402       .  A
C1437      C1442   1.412       .  A
C1438      C1439   1.393   1_455  A
C1438      H1443   1.087       .  S
C1439      C1440   1.409       .  A
C1439      C1446   1.446       .  S
C1440      C1441   1.400       .  A
C1441      C1442   1.397   1_655  A
C1441      H1444   1.087       .  S
C1442      C1445   1.444       .  S
C1445      N1447   1.157       .  T
C1446      N1448   1.157       .  T
C1449      C1450   1.403       .  A
C1449      C1454   1.420       .  A
C1450      C1451   1.402       .  A
C1450      H1455   1.083       .  S
C1451      C1452   1.421       .  A
C1451      C1458   1.444       .  S
C1452      C1453   1.402       .  A
C1453      C1454   1.393       .  A
C1453      H1456   1.083       .  S
C1454      C1457   1.447       .  S
C1457      N1459   1.157       .  T
C1458      N1460   1.157       .  T
C1461      C1462   1.403       .  A
C1461      C1466   1.428       .  A
C1462      C1463   1.403       .  A
C1462      H1467   1.085       .  S
C1463      C1464   1.424       .  A
C1463      C1470   1.442       .  S
C1464      C1465   1.410       .  A
C1465      C1466   1.423       .  A
C1465      H1468   1.085       .  S
C1466      C1469   1.443       .  S
C1469      N1471   1.158       .  T
C1470      N1472   1.156       .  T
C1473      C1474   1.414       .  A
C1473      C1478   1.420       .  A
C1474      C1475   1.417   1_455  A
C1474      H1479   1.085       .  S
C1475      C1476   1.421       .  A
C1475      C1482   1.444       .  S
C1476      C1477   1.410       .  A
C1477      C1478   1.411   1_655  A
C1477      H1480   1.085       .  S
C1478      C1481   1.443       .  S
C1481      N1483   1.157       .  T
C1482      N1484   1.158       .  T
C1485      C1486   1.404       .  A
C1485      C1490   1.424       .  A
C1486      C1487   1.399       .  A
C1486      H1491   1.084       .  S
C1487      C1488   1.411       .  A
C1487      C1494   1.442       .  S
C1488      C1489   1.395       .  A
C1489      C1490   1.398       .  A
C1489      H1492   1.085       .  S
C1490      C1493   1.445       .  S
C1493      N1495   1.157       .  T
C1494      N1496   1.156       .  T
C1497      C1498   1.404       .  A
C1497      C1502   1.407       .  A
C1498      H1503   1.087       .  S
C1499      C1500   1.412       .  A
C1499      C1506   1.445       .  S
C1500      C1501   1.409       .  A
C1501      H1504   1.086       .  S
C1502      C1505   1.443       .  S
C1505      N1507   1.157       .  T
C1506      N1508   1.157       .  T
C1509      C1510   1.408       .  A
C1509      C1514   1.411       .  A
C1510      C1511   1.406       .  A
C1510      H1515   1.084       .  S
C1511      C1512   1.407       .  A
C1511      C1518   1.441       .  S
C1512      C1513   1.407       .  A
C1513      C1514   1.402       .  A
C1513      H1516   1.085       .  S
C1514      C1517   1.445       .  S
C1517      N1519   1.157       .  T
C1518      N1520   1.157       .  T
C1521      C1522   1.407       .  A
C1521      C1526   1.419       .  A
C1522      C1523   1.412       .  A
C1522      H1527   1.085       .  S
C1523      C1524   1.418       .  A
C1523      C1530   1.443       .  S
C1524      C1525   1.403       .  A
C1525      C1526   1.402       .  A
C1525      H1528   1.085       .  S
C1526      C1529   1.445       .  S
C1529      N1531   1.157       .  T
C1530      N1532   1.157       .  T
C1533      C1534   1.406       .  A
C1533      C1538   1.420       .  A
C1534      C1535   1.409       .  A
C1534      H1539   1.086       .  S
C1535      C1536   1.418       .  A
C1535      C1542   1.443       .  S
C1536      C1537   1.404       .  A
C1537      C1538   1.396       .  A
C1538      C1541   1.446       .  S
C1542      N1544   1.157       .  T
C1545      C1546   1.407       .  A
C1545      C1550   1.417       .  A
C1546      C1547   1.402       .  A
C1546      H1551   1.085       .  S
C1547      C1548   1.410       .  A
C1547      C1554   1.445       .  S
C1548      C1549   1.400       .  A
C1549      C1550   1.401       .  A
C1549      H1552   1.085       .  S
C1550      C1553   1.443       .  S
C1553      N1555   1.157       .  T
C1554      N1556   1.157       .  T
C1557      C1558   1.412       .  A
C1557      C1562   1.409       .  A
C1558      C1559   1.403       .  A
C1558      H1563   1.085       .  S
C1559      C1560   1.408       .  A
C1559      C1566   1.444       .  S
C1560      C1561   1.407       .  A
C1561      C1562   1.401       .  A
C1561      H1564   1.085       .  S
C1562      C1565   1.443       .  S
C1565      N1567   1.157       .  T
C1566      N1568   1.158       .  T
C1569      C1570   1.398       .  A
C1569      C1574   1.409       .  A
C1570      C1571   1.389       .  A
C1570      H1575   1.086       .  S
C1571      C1572   1.419       .  A
C1571      C1578   1.446       .  S
C1572      C1573   1.408       .  A
C1573      C1574   1.404       .  A
C1573      H1576   1.083       .  S
C1574      C1577   1.443       .  S
C1577      N1579   1.157       .  T
C1578      N1580   1.157       .  T
C1581      C1582   1.411       .  A
C1581      C1586   1.411       .  A
C1582      C1583   1.399   1_545  A
C1582      H1587   1.085       .  S
C1583      C1584   1.408       .  A
C1583      C1590   1.444       .  S
C1584      C1585   1.410       .  A
C1585      C1586   1.405   1_565  A
C1585      H1588   1.085       .  S
C1586      C1589   1.443       .  S
C1589      N1591   1.157       .  T
C1590      N1592   1.157       .  T
C1593      C1594   1.407       .  A
C1593      C1598   1.419       .  A
C1594      C1595   1.408       .  A
C1594      H1599   1.085       .  S
C1595      C1596   1.420       .  A
C1595      C1602   1.444       .  S
C1596      C1597   1.408       .  A
C1597      C1598   1.413       .  A
C1597      H1600   1.084       .  S
C1598      C1601   1.443       .  S
C1601      N1603   1.157       .  T
C1602      N1604   1.157       .  T
C1605      C1606   1.401   1_565  A
C1605      C1610   1.418   1_565  A
C1606      C1607   1.401       .  A
C1606      H1611   1.084   1_545  S
C1607      C1608   1.420       .  A
C1607      C1614   1.445       .  S
C1608      C1609   1.406       .  A
C1609      C1610   1.407       .  A
C1609      H1612   1.083       .  S
C1610      C1613   1.445   1_545  S
C1613      N1615   1.157       .  T
C1617      C1618   1.406       .  A
C1617      C1622   1.419       .  A
C1618      C1619   1.407       .  A
C1618      H1623   1.085       .  S
C1619      C1620   1.413       .  A
C1619      C1626   1.442       .  S
C1620      C1621   1.402       .  A
C1621      C1622   1.401       .  A
C1621      H1624   1.086       .  S
C1622      C1625   1.446       .  S
C1625      N1627   1.157       .  T
C1626      N1628   1.157       .  T
C1629      C1630   1.406       .  A
C1629      C1634   1.412       .  A
C1630      C1631   1.399       .  A
C1630      H1635   1.086       .  S
C1631      C1632   1.411       .  A
C1631      C1638   1.444       .  S
C1632      C1633   1.410       .  A
C1633      C1634   1.408       .  A
C1633      H1636   1.086       .  S
C1634      C1637   1.444       .  S
C1637      N1639   1.158       .  T
C1638      N1640   1.157       .  T
C1641      C1642   1.408       .  A
C1641      C1646   1.418       .  A
C1642      C1643   1.411       .  A
C1642      H1647   1.084       .  S
C1643      C1644   1.419   1_556  A
C1644      C1645   1.404       .  A
C1645      C1646   1.401   1_554  A
C1645      H1648   1.085       .  S
C1646      C1649   1.444       .  S
C1649      N1651   1.157       .  T
C1650      N1652   1.157       .  T
C1653      C1654   1.402       .  A
C1653      C1658   1.415       .  A
C1654      C1655   1.398       .  A
C1654      H1659   1.085       .  S
C1655      C1656   1.419       .  A
C1655      C1662   1.446       .  S
C1656      C1657   1.403       .  A
C1657      C1658   1.402       .  A
C1657      H1660   1.085       .  S
C1658      C1661   1.442       .  S
C1661      N1663   1.157       .  T
C1662      N1664   1.158       .  T
C1665      C1670   1.420       .  A
C1666      C1667   1.405       .  A
C1666      H1671   1.085       .  S
C1667      C1668   1.412       .  A
C1667      C1674   1.440       .  S
C1669      C1670   1.401       .  A
C1669      H1672   1.086       .  S
C1670      C1673   1.444       .  S
C1673      N1675   1.157       .  T
C1674      N1676   1.157       .  T
C1677      C1678   1.402       .  A
C1677      C1682   1.413       .  A
C1678      C1679   1.391       .  A
C1678      H1683   1.085       .  S
C1679      C1680   1.413       .  A
C1679      C1686   1.445       .  S
C1680      C1681   1.406       .  A
C1681      C1682   1.404       .  A
C1681      H1684   1.084       .  S
C1682      C1685   1.443       .  S
C1685      N1687   1.157       .  T
C1686      N1688   1.157       .  T
C1689      C1690   1.413       .  A
C1689      C1694   1.420       .  A
C1690      C1691   1.411       .  A
C1690      H1695   1.084       .  S
C1691      C1692   1.415       .  A
C1691      C1698   1.443       .  S
C1692      C1693   1.406       .  A
C1693      C1694   1.398       .  A
C1693      H1696   1.086       .  S
C1694      C1697   1.445       .  S
C1697      N1699   1.157       .  T
C1698      N1700   1.157       .  T
C1701      C1702   1.405       .  A
C1701      C1706   1.410       .  A
C1702      C1703   1.401       .  A
C1702      H1707   1.086       .  S
C1703      C1704   1.411       .  A
C1703      C1710   1.445       .  S
C1704      C1705   1.407       .  A
C1705      C1706   1.401       .  A
C1705      H1708   1.085       .  S
C1706      C1709   1.445       .  S
C1709      N1711   1.157       .  T
C1710      N1712   1.157       .  T
C1713      C1714   1.406       .  A
C1713      C1718   1.413       .  A
C1714      C1715   1.394       .  A
C1714      H1719   1.086       .  S
C1715      C1716   1.405       .  A
C1715      C1722   1.445       .  S
C1716      C1717   1.402       .  A
C1717      C1718   1.401       .  A
C1717      H1720   1.085       .  S
C1718      C1721   1.444       .  S
C1721      N1723   1.157       .  T
C1722      N1724   1.157       .  T
C1725      C1726   1.409       .  A
C1725      C1730   1.416       .  A
C1726      C1727   1.399       .  A
C1726      H1731   1.084       .  S
C1727      C1728   1.412       .  A
C1727      C1734   1.444       .  S
C1728      C1729   1.405       .  A
C1729      C1730   1.391       .  A
C1729      H1732   1.085       .  S
C1730      C1733   1.446       .  S
C1733      N1735   1.157       .  T
C1734      N1736   1.157       .  T
C1737      C1738   1.407       .  A
C1737      C1742   1.419       .  A
C1738      C1739   1.407       .  A
C1738      H1743   1.085       .  S
C1739      C1740   1.413       .  A
C1739      C1746   1.443       .  S
C1740      C1741   1.401       .  A
C1741      C1742   1.399       .  A
C1741      H1744   1.086       .  S
C1742      C1745   1.445       .  S
C1745      N1747   1.157       .  T
C1746      N1748   1.157       .  T
C1749      C1754   1.419       .  A
C1750      C1751   1.410       .  A
C1750      H1755   1.084       .  S
C1751      C1752   1.414       .  A
C1751      C1758   1.443       .  S
C1752      C1753   1.410       .  A
C1754      C1757   1.445       .  S
C1757      N1759   1.157       .  T
C1758      N1760   1.157       .  T
C1761      C1762   1.407       .  A
C1761      C1766   1.423       .  A
C1762      C1763   1.409   1_565  A
C1762      H1767   1.085       .  S
C1763      C1764   1.423       .  A
C1763      C1770   1.444       .  S
C1764      C1765   1.406       .  A
C1765      C1766   1.408   1_545  A
C1765      H1768   1.086       .  S
C1766      C1769   1.444       .  S
C1769      N1771   1.157       .  T
C1770      N1772   1.158       .  T
C1773      C1774   1.406       .  A
C1773      C1778   1.407       .  A
C1774      C1775   1.401       .  A
C1774      H1779   1.084       .  S
C1775      C1776   1.409       .  A
C1775      C1782   1.444       .  S
C1776      C1777   1.408       .  A
C1777      C1778   1.405       .  A
C1777      H1780   1.084       .  S
C1778      C1781   1.442       .  S
C1781      N1783   1.157       .  T
C1782      N1784   1.157       .  T
C1785      C1786   1.415       .  A
C1785      C1790   1.414       .  A
C1786      C1787   1.398       .  A
C1786      H1791   1.084       .  S
C1787      C1788   1.408       .  A
C1787      C1794   1.445       .  S
C1788      C1789   1.412       .  A
C1789      C1790   1.414       .  A
C1789      H1792   1.084       .  S
C1790      C1793   1.442       .  S
C1793      N1795   1.157       .  T
C1794      N1796   1.157       .  T
C1797      C1798   1.407       .  A
C1797      C1802   1.419       .  A
C1798      C1799   1.412       .  A
C1798      H1803   1.085       .  S
C1799      C1800   1.422       .  A
C1799      C1806   1.444       .  S
C1800      C1801   1.401       .  A
C1801      C1802   1.394       .  A
C1801      H1804   1.085       .  S
C1802      C1805   1.442       .  S
C1805      N1807   1.155       .  T
C1806      N1808   1.158       .  T
C1809      C1810   1.407       .  A
C1809      C1814   1.409       .  A
C1810      C1811   1.392   1_565  A
C1810      H1815   1.085       .  S
C1811      C1812   1.411       .  A
C1811      C1818   1.445       .  S
C1812      C1813   1.410       .  A
C1813      C1814   1.399   1_545  A
C1813      H1816   1.084       .  S
C1814      C1817   1.444       .  S
C1817      N1819   1.157       .  T
C1818      N1820   1.157       .  T
C1821      C1822   1.404       .  A
C1821      C1826   1.415       .  A
C1822      C1823   1.403       .  A
C1822      H1827   1.085       .  S
C1823      C1824   1.412       .  A
C1823      C1830   1.445       .  S
C1824      C1825   1.397       .  A
C1825      C1826   1.394       .  A
C1825      H1828   1.086       .  S
C1826      C1829   1.446       .  S
C1829      N1831   1.157       .  T
C1830      N1832   1.157       .  T
C1833      C1834   1.400       .  A
C1833      C1838   1.413       .  A
C1834      C1835   1.389       .  A
C1834      H1839   1.084       .  S
C1835      C1836   1.412       .  A
C1835      C1842   1.444       .  S
C1836      C1837   1.405       .  A
C1837      C1838   1.403       .  A
C1837      H1840   1.083       .  S
C1838      C1841   1.444       .  S
C1841      N1843   1.158       .  T
C1842      N1844   1.157       .  T
C1845      C1846   1.402       .  A
C1845      C1850   1.410       .  A
C1846      C1847   1.393       .  A
C1846      H1851   1.085       .  S
C1847      C1848   1.410       .  A
C1847      C1854   1.444       .  S
C1848      C1849   1.403       .  A
C1849      C1850   1.393       .  A
C1849      H1852   1.085       .  S
C1850      C1853   1.445       .  S
C1853      N1855   1.157       .  T
C1854      N1856   1.157       .  T
